REMARK  3 active torsions:
REMARK  status: ('A' for Active; 'I' for Inactive)
REMARK    1  A    between atoms: C2_2  and  N1_3 
REMARK    2  A    between atoms: C3_4  and  C4_5 
REMARK    3  A    between atoms: C7_9  and  O2_10 
ROOT
HETATM    1  N1  LIG X 999       0.361   0.156  -0.046  1.00  0.00    -0.034 N 
HETATM    2  C3  LIG X 999      -0.860  -0.606  -0.447  1.00  0.00     0.258 C 
HETATM    3  C5  LIG X 999      -0.988  -1.698   0.639  1.00  0.00     0.028 C 
HETATM    4  C6  LIG X 999       0.148  -2.715   0.423  1.00  0.00     0.041 C 
HETATM    5  C7  LIG X 999       1.395  -1.922   0.864  1.00  0.00     0.149 C 
HETATM    6  C8  LIG X 999       0.798  -0.532   1.202  1.00  0.00     0.223 C 
HETATM    7  C9  LIG X 999      -0.497  -0.960   1.862  1.00  0.00     0.043 C 
HETATM    8  H4  LIG X 999       1.089   0.030  -0.788  1.00  0.00     0.287 HD
ENDROOT
BRANCH   1   9
HETATM    9  C2  LIG X 999       0.186   1.602   0.050  1.00  0.00     0.191 C 
HETATM   10  C1  LIG X 999       0.028   2.290   1.192  1.00  0.00     0.037 C 
ENDBRANCH   1   9
BRANCH   2  11
HETATM   11  C4  LIG X 999      -2.136   0.209  -0.592  1.00  0.00     0.265 C 
HETATM   12  O1  LIG X 999      -2.667   0.743   0.369  1.00  0.00    -0.305 OA
ENDBRANCH   2  11
BRANCH   5  13
HETATM   13  O2  LIG X 999       2.364  -1.853  -0.149  1.00  0.00    -0.393 OA
HETATM   14  H11 LIG X 999       2.766  -2.758  -0.213  1.00  0.00     0.210 HD
ENDBRANCH   5  13
TORSDOF 3
