REMARK  1 active torsions:
REMARK  status: ('A' for Active; 'I' for Inactive)
REMARK    1  A    between atoms: C1_2  and  C2_3 
ROOT
HETATM    1  C2  LIG X 999       0.890  -0.410  -0.046  1.00  0.00     0.002 A 
HETATM    2  C3  LIG X 999      -0.029  -1.468  -0.122  1.00  0.00     0.016 A 
HETATM    3  C4  LIG X 999      -1.404  -1.214  -0.083  1.00  0.00     0.024 A 
HETATM    4  C5  LIG X 999      -1.871   0.099   0.033  1.00  0.00     0.034 A 
HETATM    5 CL1  LIG X 999      -3.596   0.416   0.083  1.00  0.00    -0.084 Cl
HETATM    6  C6  LIG X 999      -0.962   1.159   0.110  1.00  0.00     0.024 A 
HETATM    7  C7  LIG X 999       0.413   0.908   0.070  1.00  0.00     0.016 A 
ENDROOT
BRANCH   1   8
HETATM    8  C1  LIG X 999       2.336  -0.696  -0.089  1.00  0.00     0.269 C 
HETATM    9  O1  LIG X 999       3.186   0.232  -0.023  1.00  0.00    -0.301 OA
ENDBRANCH   1   8
TORSDOF 1
