REMARK  3 active torsions:
REMARK  status: ('A' for Active; 'I' for Inactive)
REMARK    1  A    between atoms: N1_1  and  C1_2 
REMARK    2  A    between atoms: C5_7  and  O1_8 
REMARK    3  A    between atoms: C6_9  and  C7_10 
ROOT
HETATM    1  C1  LIG X 999       0.519   0.879   0.249  1.00  0.00     0.043 A 
HETATM    2  C2  LIG X 999       1.594   0.084   0.675  1.00  0.00     0.054 A 
HETATM    3  C3  LIG X 999       1.523  -1.308   0.602  1.00  0.00     0.038 A 
HETATM    4 CL1  LIG X 999       2.885  -2.284   1.123  1.00  0.00    -0.084 Cl
HETATM    5  C4  LIG X 999       0.377  -1.922   0.101  1.00  0.00     0.061 A 
HETATM    6  C5  LIG X 999      -0.718  -1.150  -0.309  1.00  0.00     0.082 A 
HETATM    7  C6  LIG X 999      -0.668   0.258  -0.223  1.00  0.00     0.061 A 
ENDROOT
BRANCH   1   8
HETATM    8  N1  LIG X 999       0.684   2.304   0.250  1.00  0.00    -0.398 N 
HETATM    9  H1  LIG X 999       0.095   2.930  -0.342  1.00  0.00     0.156 HD
HETATM   10  H2  LIG X 999       1.504   2.740   0.727  1.00  0.00     0.156 HD
ENDBRANCH   1   8
BRANCH   7  11
HETATM   11  C7  LIG X 999      -1.876   1.029  -0.594  1.00  0.00     0.275 C 
HETATM   12  O2  LIG X 999      -2.148   2.131  -0.048  1.00  0.00    -0.301 OA
ENDBRANCH   7  11
BRANCH   6  13
HETATM   13  O1  LIG X 999      -1.866  -1.784  -0.788  1.00  0.00    -0.360 OA
HETATM   14  H5  LIG X 999      -1.928  -2.794  -0.854  1.00  0.00     0.217 HD
ENDBRANCH   6  13
TORSDOF 3
