REMARK  5 active torsions:
REMARK  status: ('A' for Active; 'I' for Inactive)
REMARK       I    between atoms: C1_2  and  N1_3 
REMARK    1  A    between atoms: C1_2  and  C9_17 
REMARK    2  A    between atoms: N1_3  and  C2_4 
REMARK    3  A    between atoms: C2_4  and  C3_5 
REMARK    4  A    between atoms: C3_5  and  N2_6 
REMARK    5  A    between atoms: C4_8  and  C5_9 
ROOT
HETATM    1  N2  LIG X 999      -0.823  -0.659  -1.056  1.00  0.00    -0.192 N 
HETATM    2  N3  LIG X 999      -1.294  -0.852   0.164  1.00  0.00    -0.132 NA
HETATM    3  C4  LIG X 999      -2.626  -0.970  -0.022  1.00  0.00     0.208 A 
HETATM    4  N4  LIG X 999      -2.962  -0.840  -1.324  1.00  0.00    -0.134 NA
HETATM    5  N5  LIG X 999      -1.807  -0.642  -1.937  1.00  0.00    -0.199 N 
HETATM    6  H7  LIG X 999      -1.698  -0.485  -2.963  1.00  0.00     0.212 HD
ENDROOT
BRANCH   1   7
HETATM    7  C3  LIG X 999       0.579  -0.407  -1.367  1.00  0.00     0.195 C 
BRANCH   7   8
HETATM    8  C2  LIG X 999       0.861   1.094  -1.326  1.00  0.00     0.176 C 
BRANCH   8   9
HETATM    9  N1  LIG X 999       2.264   1.360  -1.625  1.00  0.00    -0.254 NA
HETATM   10  C1  LIG X 999       3.331   1.350  -0.668  1.00  0.00     0.242 C 
HETATM   11  O1  LIG X 999       4.501   1.594  -1.066  1.00  0.00    -0.271 OA
BRANCH  10  12
HETATM   12  C9  LIG X 999       3.068   1.120   0.798  1.00  0.00     0.080 A 
HETATM   13  C10 LIG X 999       3.152  -0.337   1.228  1.00  0.00     0.015 A 
HETATM   14  C11 LIG X 999       4.250   0.631   1.628  1.00  0.00     0.015 A 
ENDBRANCH  10  12
ENDBRANCH   8   9
ENDBRANCH   7   8
ENDBRANCH   1   7
BRANCH   3  15
HETATM   15  C5  LIG X 999      -3.592  -1.200   1.057  1.00  0.00     0.057 A 
HETATM   16  C6  LIG X 999      -3.286  -1.333   2.408  1.00  0.00     0.025 A 
HETATM   17  C7  LIG X 999      -4.414  -1.546   3.209  1.00  0.00     0.033 A 
HETATM   18  C8  LIG X 999      -5.597  -1.579   2.486  1.00  0.00     0.075 A 
HETATM   19 CL1  LIG X 999      -7.197  -1.823   3.154  1.00  0.00    -0.076 Cl
HETATM   20  S1  LIG X 999      -5.257  -1.346   0.856  1.00  0.00    -0.074 SA
ENDBRANCH   3  15
TORSDOF 5
