REMARK  5 active torsions:
REMARK  status: ('A' for Active; 'I' for Inactive)
REMARK    1  A    between atoms: N1_1  and  N2_2 
REMARK    2  A    between atoms: N2_2  and  C1_3 
REMARK    3  A    between atoms: N2_2  and  C6_9 
REMARK    4  A    between atoms: C1_3  and  C2_4 
REMARK    5  A    between atoms: C9_12  and  C10_13 
ROOT
HETATM    1  C6  LIG X 999      -1.070   0.789   0.894  1.00  0.00     0.139 A 
HETATM    2  C7  LIG X 999      -0.079   0.608   1.874  1.00  0.00     0.052 A 
HETATM    3  C8  LIG X 999       1.231   0.318   1.486  1.00  0.00     0.019 A 
HETATM    4  C9  LIG X 999       1.560   0.207   0.127  1.00  0.00     0.008 A 
HETATM    5  C15 LIG X 999       0.543   0.396  -0.821  1.00  0.00     0.132 A 
HETATM    6  N4  LIG X 999      -0.724   0.680  -0.419  1.00  0.00    -0.241 NA
ENDROOT
BRANCH   1   7
HETATM    7  N2  LIG X 999      -2.442   1.087   1.251  1.00  0.00    -0.295 N 
BRANCH   7   8
HETATM    8  N1  LIG X 999      -2.831   1.274   2.590  1.00  0.00    -0.246 NA
HETATM    9  H1  LIG X 999      -2.628   0.393   3.114  1.00  0.00     0.143 HD
HETATM   10  H2  LIG X 999      -2.257   2.051   2.990  1.00  0.00     0.143 HD
ENDBRANCH   7   8
BRANCH   7  11
HETATM   11  C1  LIG X 999      -3.473   1.203   0.217  1.00  0.00     0.185 C 
BRANCH  11  12
HETATM   12  C2  LIG X 999      -3.818  -0.149  -0.326  1.00  0.00    -0.015 A 
HETATM   13  C3  LIG X 999      -4.455  -1.167   0.352  1.00  0.00     0.035 A 
HETATM   14  C4  LIG X 999      -4.514  -2.220  -0.538  1.00  0.00     0.142 A 
HETATM   15  O1  LIG X 999      -3.952  -1.874  -1.675  1.00  0.00    -0.334 OA
HETATM   16  C5  LIG X 999      -3.520  -0.638  -1.581  1.00  0.00     0.150 A 
ENDBRANCH  11  12
ENDBRANCH   7  11
ENDBRANCH   1   7
BRANCH   4  17
HETATM   17  C10 LIG X 999       2.947  -0.105  -0.303  1.00  0.00     0.043 A 
HETATM   18  C11 LIG X 999       4.045   0.465   0.365  1.00  0.00     0.030 A 
HETATM   19  C12 LIG X 999       5.341   0.165  -0.058  1.00  0.00     0.004 A 
HETATM   20  C13 LIG X 999       5.538  -0.694  -1.137  1.00  0.00     0.017 A 
HETATM   21  C14 LIG X 999       4.430  -1.245  -1.781  1.00  0.00     0.088 A 
HETATM   22  N3  LIG X 999       3.170  -0.945  -1.360  1.00  0.00    -0.365 N 
HETATM   23  H14 LIG X 999       2.367  -1.394  -1.855  1.00  0.00     0.165 HD
ENDBRANCH   4  17
TORSDOF 5
