REMARK  3 active torsions:
REMARK  status: ('A' for Active; 'I' for Inactive)
REMARK    1  A    between atoms: N1_1  and  C1_2 
REMARK    2  A    between atoms: C5_7  and  O1_8 
REMARK    3  A    between atoms: C6_9  and  C7_10 
ROOT
HETATM    1  C1  LIG X 999      -0.460   0.880  -1.871  1.00  0.00     0.043 A 
HETATM    2  C2  LIG X 999       0.461   1.931  -2.002  1.00  0.00     0.054 A 
HETATM    3  C3  LIG X 999       1.691   1.888  -1.345  1.00  0.00     0.038 A 
HETATM    4 CL1  LIG X 999       2.835   3.204  -1.536  1.00  0.00    -0.084 Cl
HETATM    5  C4  LIG X 999       2.017   0.790  -0.549  1.00  0.00     0.061 A 
HETATM    6  C5  LIG X 999       1.106  -0.261  -0.385  1.00  0.00     0.082 A 
HETATM    7  C6  LIG X 999      -0.150  -0.220  -1.027  1.00  0.00     0.061 A 
ENDROOT
BRANCH   1   8
HETATM    8  N1  LIG X 999      -1.664   0.928  -2.648  1.00  0.00    -0.398 N 
HETATM    9  H1  LIG X 999      -1.934   1.804  -3.150  1.00  0.00     0.156 HD
HETATM   10  H2  LIG X 999      -2.218   0.072  -2.865  1.00  0.00     0.156 HD
ENDBRANCH   1   8
BRANCH   7  11
HETATM   11  C7  LIG X 999      -1.111  -1.315  -0.763  1.00  0.00     0.275 C 
HETATM   12  O2  LIG X 999      -2.355  -1.120  -0.786  1.00  0.00    -0.301 OA
ENDBRANCH   7  11
BRANCH   6  13
HETATM   13  O1  LIG X 999       1.442  -1.340   0.434  1.00  0.00    -0.360 OA
HETATM   14  H5  LIG X 999       2.335  -1.389   0.910  1.00  0.00     0.217 HD
ENDBRANCH   6  13
TORSDOF 3
