REMARK  2 active torsions:
REMARK  status: ('A' for Active; 'I' for Inactive)
REMARK    1  A    between atoms: N3_3  and  C1_4 
REMARK    2  A    between atoms: C3_6  and  O1_7 
ROOT
HETATM    1  N1  LIG X 999       3.775  -1.424  -2.265  1.00  0.00     0.068 N 
HETATM    2  N2  LIG X 999       2.749  -0.748  -2.199  1.00  0.00    -0.162 NA
HETATM    3  N3  LIG X 999       1.722  -0.071  -2.134  1.00  0.00    -0.073 NA
ENDROOT
BRANCH   3   4
HETATM    4  C1  LIG X 999       0.879  -0.066  -0.974  1.00  0.00     0.097 A 
HETATM    5  C2  LIG X 999      -0.272   0.732  -0.979  1.00  0.00     0.071 A 
HETATM    6  C3  LIG X 999      -1.119   0.764   0.135  1.00  0.00     0.069 A 
HETATM    7  C4  LIG X 999      -0.815  -0.008   1.264  1.00  0.00     0.060 A 
HETATM    8  C5  LIG X 999       0.332  -0.807   1.278  1.00  0.00     0.039 A 
HETATM    9 CL1  LIG X 999       0.710  -1.772   2.694  1.00  0.00    -0.084 Cl
HETATM   10  C6  LIG X 999       1.179  -0.838   0.164  1.00  0.00     0.058 A 
BRANCH   6  11
HETATM   11  O1  LIG X 999      -2.259   1.565   0.109  1.00  0.00    -0.361 OA
HETATM   12  H2  LIG X 999      -2.893   1.610   0.898  1.00  0.00     0.217 HD
ENDBRANCH   6  11
ENDBRANCH   3   4
TORSDOF 2
