REMARK  0 active torsions:
REMARK  status: ('A' for Active; 'I' for Inactive)
ROOT
HETATM    1  N1  LIG X 999      -0.473  -2.168  -1.403  1.00  0.00    -0.191 NA
HETATM    2  C1  LIG X 999      -0.393  -1.188  -0.794  1.00  0.00     0.107 C 
HETATM    3  C2  LIG X 999      -0.294   0.030  -0.039  1.00  0.00     0.086 A 
HETATM    4  C3  LIG X 999      -1.363   0.827   0.348  1.00  0.00     0.032 A 
HETATM    5  C4  LIG X 999      -0.965   1.954   1.077  1.00  0.00     0.033 A 
HETATM    6  C5  LIG X 999       0.410   2.030   1.255  1.00  0.00     0.075 A 
HETATM    7 CL1  LIG X 999       1.259   3.298   2.113  1.00  0.00    -0.076 Cl
HETATM    8  S1  LIG X 999       1.140   0.709   0.515  1.00  0.00    -0.067 SA
ENDROOT
TORSDOF 0
