REMARK  1 active torsions:
REMARK  status: ('A' for Active; 'I' for Inactive)
REMARK    1  A    between atoms: N1_1  and  C1_2 
ROOT
HETATM    1  C1  LIG X 999       0.913  -0.058  -0.081  1.00  0.00     0.030 A 
HETATM    2  C2  LIG X 999       0.138  -1.217  -0.235  1.00  0.00     0.069 A 
HETATM    3  C3  LIG X 999      -1.255  -1.152  -0.119  1.00  0.00     0.111 A 
HETATM    4  O1  LIG X 999      -2.019  -2.303  -0.273  1.00  0.00    -0.192 OA
HETATM    5  C4  LIG X 999      -1.879   0.070   0.150  1.00  0.00     0.064 A 
HETATM    6  C5  LIG X 999      -1.111   1.229   0.304  1.00  0.00     0.038 A 
HETATM    7 CL1  LIG X 999      -1.894   2.762   0.642  1.00  0.00    -0.084 Cl
HETATM    8  C6  LIG X 999       0.283   1.166   0.189  1.00  0.00     0.052 A 
ENDROOT
BRANCH   1   9
HETATM    9  N1  LIG X 999       2.337  -0.124  -0.199  1.00  0.00    -0.399 N 
HETATM   10  H1  LIG X 999       2.923   0.734  -0.086  1.00  0.00     0.156 HD
HETATM   11  H2  LIG X 999       2.815  -1.030  -0.400  1.00  0.00     0.156 HD
ENDBRANCH   1   9
TORSDOF 1
