REMARK  5 active torsions:
REMARK  status: ('A' for Active; 'I' for Inactive)
REMARK    1  A    between atoms: N1_1  and  C1_2 
REMARK    2  A    between atoms: C3_4  and  O1_5 
REMARK    3  A    between atoms: C5_7  and  C6_8 
REMARK    4  A    between atoms: C7_9  and  C8_10 
REMARK    5  A    between atoms: C11_15  and  C12_16 
ROOT
HETATM    1  C6  LIG X 999      -0.894  -0.343   0.511  1.00  0.00     0.012 C 
HETATM    2  C7  LIG X 999      -0.023   0.081  -0.418  1.00  0.00     0.016 C 
ENDROOT
BRANCH   1   3
HETATM    3  C5  LIG X 999      -2.003  -1.287   0.229  1.00  0.00    -0.031 A 
HETATM    4  C4  LIG X 999      -1.973  -2.190  -0.853  1.00  0.00     0.048 A 
HETATM    5  C3  LIG X 999      -3.037  -3.071  -1.073  1.00  0.00     0.068 A 
HETATM    6  C2  LIG X 999      -4.139  -3.065  -0.209  1.00  0.00     0.065 A 
HETATM    7  C1  LIG X 999      -4.176  -2.186   0.880  1.00  0.00     0.029 A 
HETATM    8  C13 LIG X 999      -3.107  -1.306   1.098  1.00  0.00     0.040 A 
BRANCH   5   9
HETATM    9  O1  LIG X 999      -2.986  -3.953  -2.150  1.00  0.00    -0.361 OA
HETATM   10  H4  LIG X 999      -3.739  -4.605  -2.337  1.00  0.00     0.217 HD
ENDBRANCH   5   9
BRANCH   7  11
HETATM   11  N1  LIG X 999      -5.298  -2.187   1.766  1.00  0.00    -0.399 N 
HETATM   12  H1  LIG X 999      -6.100  -2.839   1.613  1.00  0.00     0.156 HD
HETATM   13  H2  LIG X 999      -5.337  -1.536   2.582  1.00  0.00     0.156 HD
ENDBRANCH   7  11
ENDBRANCH   1   3
BRANCH   2  14
HETATM   14  C8  LIG X 999       1.083   1.026  -0.112  1.00  0.00     0.015 A 
HETATM   15  C9  LIG X 999       0.918   2.041   0.847  1.00  0.00     0.131 A 
HETATM   16  N2  LIG X 999       1.922   2.918   1.100  1.00  0.00    -0.253 NA
HETATM   17  C10 LIG X 999       3.100   2.840   0.435  1.00  0.00     0.233 A 
HETATM   18  N3  LIG X 999       3.287   1.880  -0.504  1.00  0.00    -0.236 NA
HETATM   19  C11 LIG X 999       2.319   0.970  -0.801  1.00  0.00     0.153 A 
BRANCH  19  20
HETATM   20  C12 LIG X 999       2.609  -0.065  -1.859  1.00  0.00     0.435 C 
HETATM   21  F1  LIG X 999       2.343  -1.333  -1.374  1.00  0.00    -0.165 F 
HETATM   22  F2  LIG X 999       1.829   0.177  -2.975  1.00  0.00    -0.165 F 
HETATM   23  F3  LIG X 999       3.940  -0.012  -2.234  1.00  0.00    -0.165 F 
ENDBRANCH  19  20
ENDBRANCH   2  14
TORSDOF 5
