REMARK  2 active torsions:
REMARK  status: ('A' for Active; 'I' for Inactive)
REMARK    1  A    between atoms: N3_3  and  C1_4 
REMARK    2  A    between atoms: C3_6  and  N4_7 
ROOT
HETATM    1  N1  LIG X 999      -2.004  -4.200   0.841  1.00  0.00     0.068 N 
HETATM    2  N2  LIG X 999      -2.110  -3.026   0.489  1.00  0.00    -0.162 NA
HETATM    3  N3  LIG X 999      -2.218  -1.851   0.137  1.00  0.00    -0.073 NA
ENDROOT
BRANCH   3   4
HETATM    4  C1  LIG X 999      -1.126  -1.118  -0.434  1.00  0.00     0.097 A 
HETATM    5  C2  LIG X 999      -1.330   0.216  -0.809  1.00  0.00     0.063 A 
HETATM    6  C3  LIG X 999      -0.287   0.966  -1.371  1.00  0.00     0.029 A 
HETATM    7  C4  LIG X 999       0.970   0.374  -1.559  1.00  0.00     0.052 A 
HETATM    8  C5  LIG X 999       1.182  -0.958  -1.188  1.00  0.00     0.038 A 
HETATM    9 CL1  LIG X 999       2.757  -1.693  -1.426  1.00  0.00    -0.084 Cl
HETATM   10  C6  LIG X 999       0.140  -1.704  -0.627  1.00  0.00     0.058 A 
BRANCH   6  11
HETATM   11  N4  LIG X 999      -0.503   2.328  -1.751  1.00  0.00    -0.399 N 
HETATM   12  H2  LIG X 999      -1.436   2.779  -1.616  1.00  0.00     0.156 HD
HETATM   13  H3  LIG X 999       0.267   2.895  -2.171  1.00  0.00     0.156 HD
ENDBRANCH   6  11
ENDBRANCH   3   4
TORSDOF 2
