REMARK  3 active torsions:
REMARK  status: ('A' for Active; 'I' for Inactive)
REMARK    1  A    between atoms: N3_3  and  C1_4 
REMARK    2  A    between atoms: C14_22  and  N6_23 
REMARK    3  A    between atoms: C16_27  and  N9_28 
ROOT
HETATM    1  N1  LIG X 999      -4.806  -2.253  -1.563  1.00  0.00     0.068 N 
HETATM    2  N2  LIG X 999      -4.878  -1.025  -1.546  1.00  0.00    -0.162 NA
HETATM    3  N3  LIG X 999      -4.953   0.204  -1.531  1.00  0.00    -0.070 NA
ENDROOT
BRANCH   3   4
HETATM    4  C1  LIG X 999      -3.868   1.039  -1.957  1.00  0.00     0.120 A 
HETATM    5  C2  LIG X 999      -4.176   2.124  -2.787  1.00  0.00     0.037 A 
HETATM    6  C3  LIG X 999      -3.169   2.930  -3.313  1.00  0.00     0.004 A 
HETATM    7  C4  LIG X 999      -1.833   2.674  -3.012  1.00  0.00     0.019 A 
HETATM    8  C5  LIG X 999      -1.489   1.620  -2.147  1.00  0.00     0.062 A 
HETATM    9  C6  LIG X 999      -0.144   1.367  -1.800  1.00  0.00     0.266 A 
HETATM   10  C8  LIG X 999      -2.515   0.803  -1.587  1.00  0.00     0.081 A 
HETATM   11  O1  LIG X 999       0.775   2.074  -2.288  1.00  0.00    -0.267 OA
HETATM   12  N4  LIG X 999       0.128   0.356  -0.923  1.00  0.00    -0.259 N 
HETATM   13  C7  LIG X 999      -0.875  -0.375  -0.369  1.00  0.00     0.127 A 
HETATM   14  C17 LIG X 999       1.288  -0.135  -0.384  1.00  0.00     0.088 A 
HETATM   15  N5  LIG X 999      -2.180  -0.161  -0.674  1.00  0.00    -0.338 N 
HETATM   16  C9  LIG X 999      -0.376  -1.312   0.516  1.00  0.00     0.024 A 
HETATM   17  H4  LIG X 999      -2.904  -0.718  -0.173  1.00  0.00     0.167 HD
HETATM   18  C10 LIG X 999      -0.962  -2.279   1.323  1.00  0.00     0.042 A 
HETATM   19  C18 LIG X 999       0.971  -1.144   0.488  1.00  0.00     0.022 A 
HETATM   20  C11 LIG X 999      -0.110  -3.079   2.115  1.00  0.00     0.057 A 
HETATM   21 CL1  LIG X 999      -0.848  -4.305   3.139  1.00  0.00    -0.082 Cl
HETATM   22  C12 LIG X 999       1.308  -2.898   2.082  1.00  0.00     0.069 A 
HETATM   23 CL2  LIG X 999       2.307  -3.938   3.100  1.00  0.00    -0.082 Cl
HETATM   24  C13 LIG X 999       1.870  -1.891   1.236  1.00  0.00     0.033 A 
HETATM   25  C14 LIG X 999       3.244  -1.569   1.070  1.00  0.00     0.108 A 
HETATM   26  C15 LIG X 999       3.612  -0.528   0.167  1.00  0.00     0.072 A 
HETATM   27  C16 LIG X 999       2.644   0.203  -0.576  1.00  0.00     0.123 A 
BRANCH  25  28
HETATM   28  N6  LIG X 999       4.253  -2.283   1.800  1.00  0.00    -0.072 NA
HETATM   29  N7  LIG X 999       5.455  -2.037   1.688  1.00  0.00    -0.162 NA
HETATM   30  N8  LIG X 999       6.656  -1.793   1.577  1.00  0.00     0.068 N 
ENDBRANCH  25  28
BRANCH  27  31
HETATM   31  N9  LIG X 999       3.044   1.230  -1.490  1.00  0.00    -0.070 NA
HETATM   32  N10 LIG X 999       4.223   1.535  -1.672  1.00  0.00    -0.162 NA
HETATM   33  N11 LIG X 999       5.401   1.841  -1.855  1.00  0.00     0.068 N 
ENDBRANCH  27  31
ENDBRANCH   3   4
TORSDOF 3
