REMARK  5 active torsions:
REMARK  status: ('A' for Active; 'I' for Inactive)
REMARK    1  A    between atoms: C2_3  and  C3_5 
REMARK    2  A    between atoms: C4_6  and  C5_7 
REMARK    3  A    between atoms: C10_12  and  S1_13 
REMARK    4  A    between atoms: S1_13  and  C11_16 
REMARK    5  A    between atoms: C11_16  and  C12_17 
ROOT
HETATM    1  N1  LIG X 999      -7.683   4.842   0.076  1.00  0.00    -0.187 NA
HETATM    2  C1  LIG X 999      -6.825   4.465   0.755  1.00  0.00     0.152 C 
HETATM    3  C2  LIG X 999      -5.760   3.998   1.597  1.00  0.00     0.305 C 
HETATM    4  O1  LIG X 999      -5.551   4.548   2.709  1.00  0.00    -0.266 OA
ENDROOT
BRANCH   3   5
HETATM    5  C3  LIG X 999      -4.935   2.905   1.171  1.00  0.00    -0.007 C 
HETATM    6  C4  LIG X 999      -4.241   1.986   0.813  1.00  0.00    -0.058 C 
BRANCH   6   7
HETATM    7  C5  LIG X 999      -3.414   0.889   0.384  1.00  0.00     0.019 A 
HETATM    8  C6  LIG X 999      -3.694   0.229  -0.819  1.00  0.00     0.021 A 
HETATM    9  C7  LIG X 999      -2.893  -0.835  -1.242  1.00  0.00     0.014 A 
HETATM   10  C8  LIG X 999      -1.802  -1.250  -0.463  1.00  0.00    -0.024 A 
HETATM   11  C9  LIG X 999      -0.986  -2.311  -0.883  1.00  0.00     0.035 A 
HETATM   12  C22 LIG X 999      -1.517  -0.585   0.754  1.00  0.00    -0.025 A 
HETATM   13  C10 LIG X 999       0.105  -2.714  -0.103  1.00  0.00     0.060 A 
HETATM   14  C20 LIG X 999       0.385  -2.051   1.100  1.00  0.00     0.024 A 
HETATM   15  C21 LIG X 999      -0.422  -0.995   1.528  1.00  0.00     0.014 A 
HETATM   16  C23 LIG X 999      -2.327   0.483   1.170  1.00  0.00     0.032 A 
BRANCH  13  17
HETATM   17  S1  LIG X 999       1.190  -3.971  -0.694  1.00  0.00     0.180 S 
HETATM   18  O2  LIG X 999       0.389  -5.059  -1.354  1.00  0.00    -0.222 OA
HETATM   19  O3  LIG X 999       1.956  -4.567   0.454  1.00  0.00    -0.222 OA
BRANCH  17  20
HETATM   20  C11 LIG X 999       2.335  -3.272  -1.873  1.00  0.00     0.192 C 
BRANCH  20  21
HETATM   21  C12 LIG X 999       2.868  -1.972  -1.363  1.00  0.00    -0.002 A 
HETATM   22  C13 LIG X 999       2.274  -0.726  -1.570  1.00  0.00     0.028 A 
HETATM   23  C14 LIG X 999       2.896   0.288  -0.836  1.00  0.00    -0.016 A 
HETATM   24  C15 LIG X 999       2.522   1.634  -0.811  1.00  0.00     0.036 A 
HETATM   25  C19 LIG X 999       3.958  -0.159  -0.064  1.00  0.00     0.015 A 
HETATM   26  C16 LIG X 999       3.247   2.522   0.004  1.00  0.00     0.035 A 
HETATM   27 CL1  LIG X 999       2.800   4.217   0.057  1.00  0.00    -0.084 Cl
HETATM   28  C17 LIG X 999       4.327   2.056   0.781  1.00  0.00     0.025 A 
HETATM   29  C18 LIG X 999       4.689   0.700   0.752  1.00  0.00     0.021 A 
HETATM   30  S2  LIG X 999       4.143  -1.816  -0.261  1.00  0.00    -0.093 SA
ENDBRANCH  20  21
ENDBRANCH  17  20
ENDBRANCH  13  17
ENDBRANCH   6   7
ENDBRANCH   3   5
TORSDOF 5
