REMARK  6 active torsions:
REMARK  status: ('A' for Active; 'I' for Inactive)
REMARK    1  A    between atoms: C1_2  and  C2_3 
REMARK    2  A    between atoms: C1_2  and  N2_5 
REMARK    3  A    between atoms: N2_5  and  C3_6 
REMARK    4  A    between atoms: C7_11  and  C8_12 
REMARK    5  A    between atoms: C8_12  and  S2_13 
REMARK    6  A    between atoms: S2_13  and  C9_16 
ROOT
HETATM    1  C3  LIG X 999      -2.391   2.416  -1.117  1.00  0.00     0.034 A 
HETATM    2  C4  LIG X 999      -2.646   2.552   0.267  1.00  0.00     0.031 A 
HETATM    3  C5  LIG X 999      -1.617   2.389   1.206  1.00  0.00     0.022 A 
HETATM    4  C6  LIG X 999      -0.344   2.078   0.739  1.00  0.00     0.015 A 
HETATM    5  S1  LIG X 999       1.049   1.797   1.632  1.00  0.00    -0.093 SA
HETATM    6  C7  LIG X 999       2.021   1.481   0.282  1.00  0.00    -0.002 A 
HETATM    7  C19 LIG X 999       1.254   1.576  -0.880  1.00  0.00     0.028 A 
HETATM    8  C20 LIG X 999      -0.075   1.919  -0.611  1.00  0.00    -0.016 A 
HETATM    9  C21 LIG X 999      -1.091   2.076  -1.556  1.00  0.00     0.042 A 
ENDROOT
BRANCH   6  10
HETATM   10  C8  LIG X 999       3.438   1.009   0.346  1.00  0.00     0.192 C 
BRANCH  10  11
HETATM   11  S2  LIG X 999       3.503  -0.769   0.194  1.00  0.00     0.180 S 
HETATM   12  O2  LIG X 999       4.869  -1.257   0.586  1.00  0.00    -0.222 OA
HETATM   13  O3  LIG X 999       3.246  -1.160  -1.235  1.00  0.00    -0.222 OA
BRANCH  11  14
HETATM   14  C9  LIG X 999       2.290  -1.502   1.240  1.00  0.00     0.060 A 
HETATM   15  C10 LIG X 999       1.026  -1.831   0.731  1.00  0.00     0.024 A 
HETATM   16  C11 LIG X 999       0.040  -2.354   1.570  1.00  0.00     0.014 A 
HETATM   17  C12 LIG X 999       0.306  -2.552   2.933  1.00  0.00    -0.026 A 
HETATM   18  C13 LIG X 999      -0.678  -3.073   3.787  1.00  0.00     0.012 A 
HETATM   19  C17 LIG X 999       1.580  -2.218   3.453  1.00  0.00    -0.025 A 
HETATM   20  C14 LIG X 999      -0.402  -3.260   5.144  1.00  0.00     0.001 A 
HETATM   21  C15 LIG X 999       0.855  -2.930   5.658  1.00  0.00     0.001 A 
HETATM   22  C16 LIG X 999       1.844  -2.410   4.819  1.00  0.00     0.012 A 
HETATM   23  C18 LIG X 999       2.563  -1.692   2.601  1.00  0.00     0.035 A 
ENDBRANCH  11  14
ENDBRANCH  10  11
ENDBRANCH   6  10
BRANCH   1  24
HETATM   24  N2  LIG X 999      -3.478   2.563  -2.048  1.00  0.00    -0.339 N 
HETATM   25  H3  LIG X 999      -4.439   2.331  -1.710  1.00  0.00     0.167 HD
BRANCH  24  26
HETATM   26  C1  LIG X 999      -3.340   3.109  -3.373  1.00  0.00     0.159 C 
HETATM   27  N1  LIG X 999      -2.293   3.805  -3.686  1.00  0.00    -0.281 NA
HETATM   28  H1  LIG X 999      -2.170   4.233  -4.632  1.00  0.00     0.188 HD
BRANCH  26  29
HETATM   29  C2  LIG X 999      -4.420   2.931  -4.358  1.00  0.00     0.308 C 
HETATM   30  O1  LIG X 999      -5.446   2.257  -4.075  1.00  0.00    -0.298 OA
ENDBRANCH  26  29
ENDBRANCH  24  26
ENDBRANCH   1  24
TORSDOF 6
