REMARK  4 active torsions:
REMARK  status: ('A' for Active; 'I' for Inactive)
REMARK    1  A    between atoms: C3_3  and  S1_4 
REMARK    2  A    between atoms: S1_4  and  C4_7 
REMARK    3  A    between atoms: C8_11  and  N1_12 
REMARK    4  A    between atoms: C14_19  and  N2_20 
ROOT
HETATM    1  C1  LIG X 999      -1.023  -4.572  -1.146  1.00  0.00     0.013 C 
HETATM    2  C2  LIG X 999       0.084  -4.143  -0.937  1.00  0.00    -0.102 C 
HETATM    3  C3  LIG X 999       1.430  -3.618  -0.684  1.00  0.00     0.238 C 
ENDROOT
BRANCH   3   4
HETATM    4  S1  LIG X 999       1.395  -2.416   0.639  1.00  0.00     0.188 S 
HETATM    5  O1  LIG X 999       2.818  -2.136   1.032  1.00  0.00    -0.222 OA
HETATM    6  O2  LIG X 999       0.667  -3.023   1.806  1.00  0.00    -0.222 OA
BRANCH   4   7
HETATM    7  C4  LIG X 999       0.613  -0.882   0.197  1.00  0.00     0.087 A 
HETATM    8  C5  LIG X 999       0.047  -0.743  -1.076  1.00  0.00     0.027 A 
HETATM    9  C6  LIG X 999      -0.551   0.448  -1.469  1.00  0.00     0.016 A 
HETATM   10  C7  LIG X 999      -0.633   1.540  -0.590  1.00  0.00     0.005 A 
HETATM   11  C8  LIG X 999      -1.276   2.750  -0.971  1.00  0.00     0.069 A 
HETATM   12  C13 LIG X 999      -0.030   1.434   0.697  1.00  0.00     0.004 A 
HETATM   13  C10 LIG X 999      -1.255   3.845  -0.103  1.00  0.00     0.032 A 
HETATM   14  C11 LIG X 999      -0.680   3.739   1.159  1.00  0.00     0.003 A 
HETATM   15  C12 LIG X 999      -0.092   2.545   1.567  1.00  0.00     0.015 A 
HETATM   16  C14 LIG X 999       0.602   0.220   1.087  1.00  0.00     0.058 A 
BRANCH  11  17
HETATM   17  N1  LIG X 999      -1.956   2.911  -2.223  1.00  0.00    -0.233 NA
HETATM   18  C9  LIG X 999      -2.908   2.147  -2.583  1.00  0.00     0.163 C 
HETATM   19  S2  LIG X 999      -4.113   1.177  -3.037  1.00  0.00    -0.055 SA
ENDBRANCH  11  17
BRANCH  16  20
HETATM   20  N2  LIG X 999       1.259   0.116   2.362  1.00  0.00    -0.397 N 
HETATM   21  H9  LIG X 999       1.349  -0.794   2.862  1.00  0.00     0.156 HD
HETATM   22  H10 LIG X 999       1.755   0.927   2.789  1.00  0.00     0.156 HD
ENDBRANCH  16  20
ENDBRANCH   4   7
ENDBRANCH   3   4
TORSDOF 4
