REMARK  3 active torsions:
REMARK  status: ('A' for Active; 'I' for Inactive)
REMARK    1  A    between atoms: N3_3  and  C1_4 
REMARK    2  A    between atoms: C1_4  and  C2_5 
REMARK    3  A    between atoms: C2_5  and  C3_7 
ROOT
HETATM    1  N1  LIG X 999       5.245   1.394   0.978  1.00  0.00     0.068 N 
HETATM    2  N2  LIG X 999       4.686   0.308   0.830  1.00  0.00    -0.167 NA
HETATM    3  N3  LIG X 999       4.127  -0.779   0.681  1.00  0.00    -0.108 NA
ENDROOT
BRANCH   3   4
HETATM    4  C1  LIG X 999       3.627  -1.195  -0.623  1.00  0.00     0.272 C 
BRANCH   4   5
HETATM    5  C2  LIG X 999       2.513  -0.290  -1.077  1.00  0.00     0.181 C 
HETATM    6  O1  LIG X 999       2.759   0.536  -1.998  1.00  0.00    -0.290 OA
BRANCH   5   7
HETATM    7  C3  LIG X 999       1.155  -0.324  -0.464  1.00  0.00     0.012 A 
HETATM    8  C4  LIG X 999       0.862  -1.165   0.628  1.00  0.00     0.016 A 
HETATM    9  C5  LIG X 999      -0.415  -1.185   1.194  1.00  0.00     0.013 A 
HETATM   10  C6  LIG X 999      -1.428  -0.365   0.682  1.00  0.00    -0.026 A 
HETATM   11  C7  LIG X 999      -2.714  -0.379   1.245  1.00  0.00     0.012 A 
HETATM   12  C11 LIG X 999      -1.151   0.486  -0.413  1.00  0.00    -0.025 A 
HETATM   13  C8  LIG X 999      -3.716   0.445   0.724  1.00  0.00     0.001 A 
HETATM   14  C9  LIG X 999      -3.444   1.286  -0.358  1.00  0.00     0.001 A 
HETATM   15  C10 LIG X 999      -2.167   1.308  -0.926  1.00  0.00     0.012 A 
HETATM   16  C12 LIG X 999       0.134   0.501  -0.976  1.00  0.00     0.027 A 
ENDBRANCH   5   7
ENDBRANCH   4   5
ENDBRANCH   3   4
TORSDOF 3
