REMARK  7 active torsions:
REMARK  status: ('A' for Active; 'I' for Inactive)
REMARK    1  A    between atoms: C2_3  and  O1_4 
REMARK    2  A    between atoms: O1_4  and  C3_5 
REMARK    3  A    between atoms: C3_5  and  C4_6 
REMARK    4  A    between atoms: C3_5  and  C17_22 
REMARK    5  A    between atoms: C5_7  and  C6_8 
REMARK    6  A    between atoms: C5_7  and  C7_12 
REMARK    7  A    between atoms: C6_8  and  N2_9 
ROOT
HETATM    1  N1  LIG X 999      -4.271  -0.797   0.241  1.00  0.00    -0.195 NA
HETATM    2  C1  LIG X 999      -3.229  -0.402   0.550  1.00  0.00     0.085 C 
HETATM    3  C2  LIG X 999      -1.909   0.097   0.938  1.00  0.00     0.292 C 
ENDROOT
BRANCH   3   4
HETATM    4  O1  LIG X 999      -1.251  -0.897   1.694  1.00  0.00    -0.367 OA
BRANCH   4   5
HETATM    5  C3  LIG X 999       0.033  -0.454   2.106  1.00  0.00     0.159 C 
BRANCH   5   6
HETATM    6  C4  LIG X 999       0.988  -1.625   2.022  1.00  0.00     0.015 C 
HETATM    7  C5  LIG X 999       1.295  -2.250   0.869  1.00  0.00    -0.027 C 
BRANCH   7   8
HETATM    8  C6  LIG X 999       2.262  -3.405   0.874  1.00  0.00     0.228 C 
BRANCH   8   9
HETATM    9  N2  LIG X 999       3.621  -2.930   0.645  1.00  0.00    -0.111 NA
HETATM   10  N3  LIG X 999       4.189  -2.210   1.467  1.00  0.00    -0.167 NA
HETATM   11  N4  LIG X 999       4.755  -1.491   2.289  1.00  0.00     0.068 N 
ENDBRANCH   8   9
ENDBRANCH   7   8
BRANCH   7  12
HETATM   12  C7  LIG X 999       0.765  -1.789  -0.430  1.00  0.00    -0.028 A 
HETATM   13  C8  LIG X 999      -0.253  -2.513  -1.066  1.00  0.00     0.013 A 
HETATM   14  C9  LIG X 999      -0.779  -2.072  -2.283  1.00  0.00     0.013 A 
HETATM   15  C10 LIG X 999      -0.285  -0.904  -2.882  1.00  0.00    -0.026 A 
HETATM   16  C11 LIG X 999      -0.811  -0.448  -4.101  1.00  0.00     0.012 A 
HETATM   17  C15 LIG X 999       0.754  -0.177  -2.251  1.00  0.00    -0.025 A 
HETATM   18  C12 LIG X 999      -0.311   0.718  -4.688  1.00  0.00     0.001 A 
HETATM   19  C13 LIG X 999       0.715   1.435  -4.065  1.00  0.00     0.001 A 
HETATM   20  C14 LIG X 999       1.247   0.992  -2.851  1.00  0.00     0.012 A 
HETATM   21  C16 LIG X 999       1.276  -0.628  -1.030  1.00  0.00     0.024 A 
ENDBRANCH   7  12
ENDBRANCH   5   6
BRANCH   5  22
HETATM   22  C17 LIG X 999      -0.058   0.076   3.549  1.00  0.00     0.159 C 
HETATM   23  C18 LIG X 999       1.215   0.666   3.986  1.00  0.00     0.062 C 
HETATM   24  N5  LIG X 999       2.218   1.130   4.330  1.00  0.00    -0.197 NA
ENDBRANCH   5  22
ENDBRANCH   4   5
ENDBRANCH   3   4
TORSDOF 7
