REMARK  6 active torsions:
REMARK  status: ('A' for Active; 'I' for Inactive)
REMARK    1  A    between atoms: C3_3  and  S1_4 
REMARK    2  A    between atoms: S1_4  and  C4_7 
REMARK    3  A    between atoms: C6_9  and  N1_10 
REMARK    4  A    between atoms: C10_14  and  C11_15 
REMARK    5  A    between atoms: C12_16  and  C13_17 
REMARK    6  A    between atoms: C15_21  and  N3_22 
ROOT
HETATM    1  C1  LIG X 999       3.957   2.716   5.194  1.00  0.00     0.013 C 
HETATM    2  C2  LIG X 999       3.130   2.065   4.605  1.00  0.00    -0.102 C 
HETATM    3  C3  LIG X 999       2.126   1.275   3.890  1.00  0.00     0.238 C 
ENDROOT
BRANCH   3   4
HETATM    4  S1  LIG X 999       1.530   2.178   2.474  1.00  0.00     0.185 S 
HETATM    5  O1  LIG X 999       2.672   2.482   1.545  1.00  0.00    -0.222 OA
HETATM    6  O2  LIG X 999       0.913   3.474   2.920  1.00  0.00    -0.222 OA
BRANCH   4   7
HETATM    7  C4  LIG X 999       0.328   1.202   1.635  1.00  0.00     0.063 A 
HETATM    8  C5  LIG X 999      -1.025   1.335   1.948  1.00  0.00     0.053 A 
HETATM    9  C6  LIG X 999      -1.995   0.553   1.308  1.00  0.00     0.038 A 
HETATM   10  C7  LIG X 999      -1.598  -0.376   0.306  1.00  0.00     0.003 A 
HETATM   11  C8  LIG X 999      -2.536  -1.141  -0.412  1.00  0.00     0.016 A 
HETATM   12  C17 LIG X 999      -0.214  -0.528   0.001  1.00  0.00     0.008 A 
HETATM   13  C9  LIG X 999      -2.122  -2.067  -1.364  1.00  0.00     0.024 A 
HETATM   14  C10 LIG X 999      -0.768  -2.246  -1.649  1.00  0.00     0.048 A 
HETATM   15  C15 LIG X 999       0.205  -1.453  -0.989  1.00  0.00     0.088 A 
HETATM   16  C18 LIG X 999       0.730   0.268   0.680  1.00  0.00     0.038 A 
BRANCH   9  17
HETATM   17  N1  LIG X 999      -3.364   0.713   1.715  1.00  0.00    -0.398 N 
HETATM   18  H5  LIG X 999      -4.106   0.013   1.507  1.00  0.00     0.156 HD
HETATM   19  H6  LIG X 999      -3.634   1.496   2.351  1.00  0.00     0.156 HD
ENDBRANCH   9  17
BRANCH  14  20
HETATM   20  C11 LIG X 999      -0.414  -3.294  -2.576  1.00  0.00    -0.055 C 
HETATM   21  C12 LIG X 999      -0.130  -4.177  -3.347  1.00  0.00    -0.007 C 
BRANCH  21  22
HETATM   22  C13 LIG X 999       0.211  -5.226  -4.264  1.00  0.00     0.305 C 
HETATM   23  O3  LIG X 999      -0.667  -5.707  -5.026  1.00  0.00    -0.266 OA
HETATM   24  C14 LIG X 999       1.556  -5.727  -4.313  1.00  0.00     0.152 C 
HETATM   25  N2  LIG X 999       2.640  -6.130  -4.351  1.00  0.00    -0.187 NA
ENDBRANCH  21  22
ENDBRANCH  14  20
BRANCH  15  26
HETATM   26  N3  LIG X 999       1.615  -1.579  -1.267  1.00  0.00    -0.232 NA
HETATM   27  C16 LIG X 999       2.112  -1.835  -2.411  1.00  0.00     0.163 C 
HETATM   28  S2  LIG X 999       2.754  -2.149  -3.856  1.00  0.00    -0.055 SA
ENDBRANCH  15  26
ENDBRANCH   4   7
ENDBRANCH   3   4
TORSDOF 6
