REMARK  3 active torsions:
REMARK  status: ('A' for Active; 'I' for Inactive)
REMARK    1  A    between atoms: N3_3  and  C1_4 
REMARK    2  A    between atoms: C14_22  and  N6_23 
REMARK    3  A    between atoms: C17_27  and  N7_28 
ROOT
HETATM    1  N1  LIG X 999      -4.877  -1.923  -6.025  1.00  0.00     0.068 N 
HETATM    2  N2  LIG X 999      -4.345  -1.565  -4.976  1.00  0.00    -0.162 NA
HETATM    3  N3  LIG X 999      -3.814  -1.212  -3.921  1.00  0.00    -0.070 NA
ENDROOT
BRANCH   3   4
HETATM    4  C1  LIG X 999      -2.505  -1.658  -3.530  1.00  0.00     0.122 A 
HETATM    5  C2  LIG X 999      -1.774  -2.565  -4.320  1.00  0.00     0.037 A 
HETATM    6  C3  LIG X 999      -0.501  -2.983  -3.926  1.00  0.00     0.004 A 
HETATM    7  C4  LIG X 999       0.067  -2.501  -2.746  1.00  0.00     0.020 A 
HETATM    8  C5  LIG X 999      -0.638  -1.589  -1.941  1.00  0.00     0.064 A 
HETATM    9  C6  LIG X 999      -0.091  -1.068  -0.747  1.00  0.00     0.266 A 
HETATM   10  C8  LIG X 999      -1.940  -1.171  -2.338  1.00  0.00     0.106 A 
HETATM   11  O1  LIG X 999       1.054  -1.430  -0.368  1.00  0.00    -0.267 OA
HETATM   12  N4  LIG X 999      -0.834  -0.178  -0.020  1.00  0.00    -0.258 N 
HETATM   13  C7  LIG X 999      -2.081   0.184  -0.425  1.00  0.00     0.149 A 
HETATM   14  C18 LIG X 999      -0.610   0.512   1.142  1.00  0.00     0.088 A 
HETATM   15  N5  LIG X 999      -2.635  -0.292  -1.563  1.00  0.00    -0.226 NA
HETATM   16  C9  LIG X 999      -2.653   1.077   0.454  1.00  0.00     0.026 A 
HETATM   17  C10 LIG X 999      -3.875   1.734   0.486  1.00  0.00     0.042 A 
HETATM   18  C19 LIG X 999      -1.721   1.268   1.422  1.00  0.00     0.022 A 
HETATM   19  C11 LIG X 999      -4.116   2.612   1.564  1.00  0.00     0.057 A 
HETATM   20 CL1  LIG X 999      -5.665   3.449   1.611  1.00  0.00    -0.082 Cl
HETATM   21  C12 LIG X 999      -3.130   2.818   2.582  1.00  0.00     0.069 A 
HETATM   22 CL2  LIG X 999      -3.507   3.942   3.891  1.00  0.00    -0.082 Cl
HETATM   23  C13 LIG X 999      -1.880   2.120   2.505  1.00  0.00     0.030 A 
HETATM   24  C14 LIG X 999      -0.779   2.200   3.407  1.00  0.00     0.073 A 
HETATM   25  C16 LIG X 999       0.401   1.438   3.134  1.00  0.00     0.069 A 
HETATM   26  C17 LIG X 999       0.507   0.593   1.997  1.00  0.00     0.123 A 
BRANCH  24  27
HETATM   27  N6  LIG X 999      -0.853   3.039   4.572  1.00  0.00    -0.233 NA
HETATM   28  C15 LIG X 999       0.053   3.110   5.466  1.00  0.00     0.163 C 
HETATM   29  S1  LIG X 999       1.188   3.201   6.606  1.00  0.00    -0.055 SA
ENDBRANCH  24  27
BRANCH  26  30
HETATM   30  N7  LIG X 999       1.712  -0.133   1.726  1.00  0.00    -0.070 NA
HETATM   31  N8  LIG X 999       2.763   0.072   2.337  1.00  0.00    -0.162 NA
HETATM   32  N9  LIG X 999       3.813   0.281   2.943  1.00  0.00     0.068 N 
ENDBRANCH  26  30
ENDBRANCH   3   4
TORSDOF 3
