REMARK  5 active torsions:
REMARK  status: ('A' for Active; 'I' for Inactive)
REMARK    1  A    between atoms: C2_3  and  C3_5 
REMARK    2  A    between atoms: C4_6  and  C5_7 
REMARK    3  A    between atoms: C14_16  and  S1_17 
REMARK    4  A    between atoms: S1_17  and  C15_20 
REMARK    5  A    between atoms: C15_20  and  C16_21 
ROOT
HETATM    1  N1  LIG X 999       3.102  -3.737   0.175  1.00  0.00    -0.187 NA
HETATM    2  C1  LIG X 999       3.584  -2.686   0.137  1.00  0.00     0.152 C 
HETATM    3  C2  LIG X 999       4.183  -1.382   0.089  1.00  0.00     0.305 C 
HETATM    4  O1  LIG X 999       5.408  -1.242   0.340  1.00  0.00    -0.266 OA
ENDROOT
BRANCH   3   5
HETATM    5  C3  LIG X 999       3.384  -0.238  -0.246  1.00  0.00    -0.007 C 
HETATM    6  C4  LIG X 999       2.704   0.717  -0.525  1.00  0.00    -0.056 C 
BRANCH   6   7
HETATM    7  C5  LIG X 999       1.879   1.854  -0.855  1.00  0.00     0.040 A 
HETATM    8  C6  LIG X 999       2.491   2.991  -1.397  1.00  0.00     0.034 A 
HETATM    9  C7  LIG X 999       1.730   4.122  -1.721  1.00  0.00    -0.025 A 
HETATM   10  C8  LIG X 999       2.339   5.264  -2.265  1.00  0.00     0.012 A 
HETATM   11  C12 LIG X 999       0.333   4.114  -1.494  1.00  0.00    -0.024 A 
HETATM   12  C9  LIG X 999       1.569   6.387  -2.581  1.00  0.00     0.001 A 
HETATM   13  C10 LIG X 999       0.190   6.380  -2.356  1.00  0.00     0.001 A 
HETATM   14  C11 LIG X 999      -0.428   5.249  -1.815  1.00  0.00     0.012 A 
HETATM   15  C13 LIG X 999      -0.277   2.974  -0.951  1.00  0.00     0.037 A 
HETATM   16  C14 LIG X 999       0.484   1.838  -0.634  1.00  0.00     0.079 A 
BRANCH  16  17
HETATM   17  S1  LIG X 999      -0.324   0.422   0.058  1.00  0.00     0.181 S 
HETATM   18  O2  LIG X 999      -1.815   0.551  -0.094  1.00  0.00    -0.222 OA
HETATM   19  O3  LIG X 999       0.124  -0.818  -0.666  1.00  0.00    -0.222 OA
BRANCH  17  20
HETATM   20  C15 LIG X 999       0.077   0.307   1.793  1.00  0.00     0.192 C 
BRANCH  20  21
HETATM   21  C16 LIG X 999      -0.374  -1.007   2.343  1.00  0.00    -0.002 A 
HETATM   22  C17 LIG X 999      -1.677  -1.316   2.732  1.00  0.00     0.028 A 
HETATM   23  C18 LIG X 999      -1.805  -2.648   3.140  1.00  0.00    -0.016 A 
HETATM   24  C19 LIG X 999      -2.977  -3.264   3.586  1.00  0.00     0.036 A 
HETATM   25  C23 LIG X 999      -0.622  -3.369   3.062  1.00  0.00     0.015 A 
HETATM   26  C20 LIG X 999      -2.931  -4.621   3.954  1.00  0.00     0.035 A 
HETATM   27 CL1  LIG X 999      -4.386  -5.421   4.519  1.00  0.00    -0.084 Cl
HETATM   28  C21 LIG X 999      -1.722  -5.342   3.870  1.00  0.00     0.025 A 
HETATM   29  C22 LIG X 999      -0.551  -4.713   3.419  1.00  0.00     0.021 A 
HETATM   30  S2  LIG X 999       0.606  -2.380   2.485  1.00  0.00    -0.093 SA
ENDBRANCH  20  21
ENDBRANCH  17  20
ENDBRANCH  16  17
ENDBRANCH   6   7
ENDBRANCH   3   5
TORSDOF 5
