REMARK  4 active torsions:
REMARK  status: ('A' for Active; 'I' for Inactive)
REMARK    1  A    between atoms: C3_3  and  S1_4 
REMARK    2  A    between atoms: S1_4  and  C4_7 
REMARK    3  A    between atoms: C10_13  and  C11_14 
REMARK    4  A    between atoms: C12_15  and  C13_16 
ROOT
HETATM    1  C1  LIG X 999       3.262  -4.220  -0.921  1.00  0.00     0.013 C 
HETATM    2  C2  LIG X 999       3.096  -3.751   0.177  1.00  0.00    -0.102 C 
HETATM    3  C3  LIG X 999       2.894  -3.178   1.510  1.00  0.00     0.238 C 
ENDROOT
BRANCH   3   4
HETATM    4  S1  LIG X 999       3.225  -1.427   1.479  1.00  0.00     0.185 S 
HETATM    5  O1  LIG X 999       4.654  -1.189   1.078  1.00  0.00    -0.222 OA
HETATM    6  O2  LIG X 999       3.011  -0.855   2.853  1.00  0.00    -0.222 OA
BRANCH   4   7
HETATM    7  C4  LIG X 999       2.141  -0.635   0.338  1.00  0.00     0.060 A 
HETATM    8  C5  LIG X 999       2.560  -0.381  -0.975  1.00  0.00     0.024 A 
HETATM    9  C6  LIG X 999       1.696   0.229  -1.887  1.00  0.00     0.014 A 
HETATM   10  C7  LIG X 999       0.397   0.588  -1.497  1.00  0.00    -0.026 A 
HETATM   11  C8  LIG X 999      -0.479   1.200  -2.405  1.00  0.00     0.014 A 
HETATM   12  C16 LIG X 999      -0.034   0.328  -0.173  1.00  0.00    -0.023 A 
HETATM   13  C9  LIG X 999      -1.772   1.552  -2.006  1.00  0.00     0.021 A 
HETATM   14  C10 LIG X 999      -2.201   1.294  -0.698  1.00  0.00     0.019 A 
HETATM   15  C15 LIG X 999      -1.334   0.683   0.217  1.00  0.00     0.032 A 
HETATM   16  C17 LIG X 999       0.843  -0.286   0.735  1.00  0.00     0.035 A 
BRANCH  14  17
HETATM   17  C11 LIG X 999      -3.534   1.657  -0.294  1.00  0.00    -0.058 C 
HETATM   18  C12 LIG X 999      -4.650   1.962   0.045  1.00  0.00    -0.007 C 
BRANCH  18  19
HETATM   19  C13 LIG X 999      -5.979   2.323   0.449  1.00  0.00     0.305 C 
HETATM   20  O3  LIG X 999      -6.751   2.893  -0.364  1.00  0.00    -0.266 OA
HETATM   21  C14 LIG X 999      -6.427   2.035   1.782  1.00  0.00     0.152 C 
HETATM   22  N1  LIG X 999      -6.788   1.803   2.857  1.00  0.00    -0.187 NA
ENDBRANCH  18  19
ENDBRANCH  14  17
ENDBRANCH   4   7
ENDBRANCH   3   4
TORSDOF 4
