REMARK  5 active torsions:
REMARK  status: ('A' for Active; 'I' for Inactive)
REMARK    1  A    between atoms: N1_1  and  C1_2 
REMARK    2  A    between atoms: C3_4  and  S1_5 
REMARK    3  A    between atoms: S1_5  and  C4_8 
REMARK    4  A    between atoms: C4_8  and  C5_9 
REMARK    5  A    between atoms: C15_21  and  N2_22 
ROOT
HETATM    1  N2  LIG X 999       3.818  -1.474  -1.982  1.00  0.00    -0.233 NA
HETATM    2  C16 LIG X 999       4.937  -1.380  -2.582  1.00  0.00     0.163 C 
HETATM    3  S3  LIG X 999       6.354  -1.262  -3.341  1.00  0.00    -0.055 SA
ENDROOT
BRANCH   1   4
HETATM    4  C15 LIG X 999       2.642  -0.721  -2.335  1.00  0.00     0.069 A 
HETATM    5  C14 LIG X 999       1.446  -0.898  -1.598  1.00  0.00     0.007 A 
HETATM    6  C13 LIG X 999       1.406  -1.788  -0.508  1.00  0.00     0.038 A 
HETATM    7  C20 LIG X 999       0.274  -0.164  -1.945  1.00  0.00     0.003 A 
HETATM    8  C3  LIG X 999       0.236  -1.961   0.230  1.00  0.00     0.062 A 
HETATM    9  C2  LIG X 999      -0.914  -1.249  -0.114  1.00  0.00     0.053 A 
HETATM   10  C1  LIG X 999      -0.919  -0.359  -1.195  1.00  0.00     0.038 A 
HETATM   11  C19 LIG X 999       0.344   0.757  -3.011  1.00  0.00     0.014 A 
HETATM   12  C18 LIG X 999       1.525   0.926  -3.730  1.00  0.00     0.003 A 
HETATM   13  C17 LIG X 999       2.662   0.195  -3.403  1.00  0.00     0.032 A 
BRANCH   8  14
HETATM   14  S1  LIG X 999       0.236  -2.998   1.656  1.00  0.00     0.180 S 
HETATM   15  O1  LIG X 999      -1.149  -3.534   1.894  1.00  0.00    -0.222 OA
HETATM   16  O2  LIG X 999       1.167  -4.158   1.441  1.00  0.00    -0.222 OA
BRANCH  14  17
HETATM   17  C4  LIG X 999       0.767  -2.065   3.084  1.00  0.00     0.192 C 
BRANCH  17  18
HETATM   18  C5  LIG X 999       0.115  -0.719   3.091  1.00  0.00    -0.002 A 
HETATM   19  C6  LIG X 999      -1.217  -0.471   3.425  1.00  0.00     0.028 A 
HETATM   20  C7  LIG X 999      -1.587   0.854   3.178  1.00  0.00    -0.016 A 
HETATM   21  C8  LIG X 999      -2.852   1.409   3.387  1.00  0.00     0.036 A 
HETATM   22  C12 LIG X 999      -0.562   1.629   2.655  1.00  0.00     0.015 A 
HETATM   23  C9  LIG X 999      -3.061   2.761   3.062  1.00  0.00     0.035 A 
HETATM   24 CL1  LIG X 999      -4.639   3.484   3.313  1.00  0.00    -0.084 Cl
HETATM   25  C10 LIG X 999      -2.010   3.537   2.532  1.00  0.00     0.025 A 
HETATM   26  C11 LIG X 999      -0.744   2.968   2.322  1.00  0.00     0.021 A 
HETATM   27  S2  LIG X 999       0.820   0.694   2.479  1.00  0.00    -0.093 SA
ENDBRANCH  17  18
ENDBRANCH  14  17
ENDBRANCH   8  14
BRANCH  10  28
HETATM   28  N1  LIG X 999      -2.147   0.323  -1.498  1.00  0.00    -0.398 N 
HETATM   29  H1  LIG X 999      -2.958   0.258  -0.843  1.00  0.00     0.156 HD
HETATM   30  H2  LIG X 999      -2.323   0.811  -2.401  1.00  0.00     0.156 HD
ENDBRANCH  10  28
ENDBRANCH   1   4
TORSDOF 5
