REMARK  2 active torsions:
REMARK  status: ('A' for Active; 'I' for Inactive)
REMARK    1  A    between atoms: N3_3  and  C1_4 
REMARK    2  A    between atoms: C3_6  and  N4_7 
ROOT
HETATM    1  N1  LIG X 999       0.610   1.268  -5.778  1.00  0.00     0.068 N 
HETATM    2  N2  LIG X 999      -0.024   1.290  -4.724  1.00  0.00    -0.162 NA
HETATM    3  N3  LIG X 999      -0.661   1.314  -3.670  1.00  0.00    -0.072 NA
ENDROOT
BRANCH   3   4
HETATM    4  C1  LIG X 999      -0.150   0.771  -2.443  1.00  0.00     0.108 A 
HETATM    5  C2  LIG X 999       1.145   0.171  -2.406  1.00  0.00     0.072 A 
HETATM    6  C3  LIG X 999       1.688  -0.378  -1.212  1.00  0.00     0.123 A 
HETATM    7  C4  LIG X 999       0.895  -0.311  -0.049  1.00  0.00     0.088 A 
HETATM    8  C5  LIG X 999      -0.344   0.272  -0.119  1.00  0.00     0.022 A 
HETATM    9  N8  LIG X 999       1.105  -0.732   1.238  1.00  0.00    -0.258 N 
HETATM   10  C6  LIG X 999      -0.925   0.823  -1.252  1.00  0.00     0.033 A 
HETATM   11  C10 LIG X 999      -0.934   0.232   1.101  1.00  0.00     0.026 A 
HETATM   12  C7  LIG X 999      -2.233   1.377  -1.088  1.00  0.00     0.069 A 
HETATM   13 CL1  LIG X 999      -3.117   2.118  -2.425  1.00  0.00    -0.082 Cl
HETATM   14  C8  LIG X 999      -2.859   1.337   0.198  1.00  0.00     0.057 A 
HETATM   15 CL2  LIG X 999      -4.466   2.006   0.450  1.00  0.00    -0.082 Cl
HETATM   16  C9  LIG X 999      -2.203   0.758   1.306  1.00  0.00     0.042 A 
HETATM   17  C11 LIG X 999      -0.021  -0.392   1.922  1.00  0.00     0.149 A 
HETATM   18  N7  LIG X 999      -0.172  -0.657   3.241  1.00  0.00    -0.226 NA
HETATM   19  C12 LIG X 999       0.829  -1.284   3.917  1.00  0.00     0.111 A 
HETATM   20  C13 LIG X 999       0.683  -1.563   5.284  1.00  0.00     0.137 A 
HETATM   21  C17 LIG X 999       2.023  -1.657   3.242  1.00  0.00     0.064 A 
HETATM   22  O1  LIG X 999      -0.481  -1.202   5.954  1.00  0.00    -0.190 OA
HETATM   23  C14 LIG X 999       1.710  -2.207   5.980  1.00  0.00     0.042 A 
HETATM   24  C15 LIG X 999       2.885  -2.576   5.321  1.00  0.00     0.004 A 
HETATM   25  C16 LIG X 999       3.046  -2.305   3.959  1.00  0.00     0.020 A 
HETATM   26  C18 LIG X 999       2.144  -1.364   1.865  1.00  0.00     0.266 A 
HETATM   27  O2  LIG X 999       3.189  -1.683   1.243  1.00  0.00    -0.267 OA
BRANCH   6  28
HETATM   28  N4  LIG X 999       2.990  -0.974  -1.203  1.00  0.00    -0.070 NA
HETATM   29  N5  LIG X 999       3.696  -1.041  -2.211  1.00  0.00    -0.162 NA
HETATM   30  N6  LIG X 999       4.403  -1.109  -3.216  1.00  0.00     0.068 N 
ENDBRANCH   6  28
ENDBRANCH   3   4
TORSDOF 2
