REMARK  4 active torsions:
REMARK  status: ('A' for Active; 'I' for Inactive)
REMARK    1  A    between atoms: N3_3  and  C1_4 
REMARK    2  A    between atoms: C2_5  and  N4_6 
REMARK    3  A    between atoms: C3_9  and  N7_10 
REMARK    4  A    between atoms: C10_19  and  O1_20 
ROOT
HETATM    1  N1  LIG X 999       0.166  -4.389  -3.177  1.00  0.00     0.068 N 
HETATM    2  N2  LIG X 999       0.724  -3.499  -2.538  1.00  0.00    -0.162 NA
HETATM    3  N3  LIG X 999       1.285  -2.610  -1.895  1.00  0.00    -0.067 NA
ENDROOT
BRANCH   3   4
HETATM    4  C1  LIG X 999       0.554  -1.596  -1.186  1.00  0.00     0.161 A 
HETATM    5  C2  LIG X 999       1.034  -1.199   0.074  1.00  0.00     0.159 A 
HETATM    6  C3  LIG X 999       0.320  -0.239   0.835  1.00  0.00     0.138 A 
HETATM    7  C4  LIG X 999      -0.933   0.235   0.366  1.00  0.00     0.011 A 
HETATM    8  C5  LIG X 999      -1.762   1.054   1.164  1.00  0.00     0.015 A 
HETATM    9  C9  LIG X 999      -1.385  -0.139  -0.927  1.00  0.00     0.012 A 
HETATM   10  C6  LIG X 999      -2.974   1.540   0.670  1.00  0.00     0.001 A 
HETATM   11  C7  LIG X 999      -3.388   1.211  -0.617  1.00  0.00     0.001 A 
HETATM   12  C8  LIG X 999      -2.605   0.374  -1.411  1.00  0.00     0.015 A 
HETATM   13  C10 LIG X 999      -0.617  -1.012  -1.718  1.00  0.00     0.111 A 
BRANCH   5  14
HETATM   14  N4  LIG X 999       2.264  -1.797   0.530  1.00  0.00    -0.067 NA
HETATM   15  N5  LIG X 999       2.699  -1.692   1.678  1.00  0.00    -0.162 NA
HETATM   16  N6  LIG X 999       3.140  -1.593   2.822  1.00  0.00     0.068 N 
ENDBRANCH   5  14
BRANCH   6  17
HETATM   17  N7  LIG X 999       0.892   0.251   2.057  1.00  0.00    -0.069 NA
HETATM   18  N8  LIG X 999       0.968   1.455   2.304  1.00  0.00    -0.162 NA
HETATM   19  N9  LIG X 999       1.046   2.658   2.551  1.00  0.00     0.068 N 
ENDBRANCH   6  17
BRANCH  13  20
HETATM   20  O1  LIG X 999      -1.021  -1.262  -3.034  1.00  0.00    -0.357 OA
HETATM   21  H5  LIG X 999      -0.424  -1.691  -3.728  1.00  0.00     0.217 HD
ENDBRANCH  13  20
ENDBRANCH   3   4
TORSDOF 4
