REMARK  1 active torsions:
REMARK  status: ('A' for Active; 'I' for Inactive)
REMARK    1  A    between atoms: C13_15  and  N2_16 
ROOT
HETATM    1  N1  LIG X 999       3.087  -3.584  -1.336  1.00  0.00    -0.191 NA
HETATM    2  C1  LIG X 999       2.338  -2.953  -0.720  1.00  0.00     0.109 C 
HETATM    3  C2  LIG X 999       1.407  -2.173   0.052  1.00  0.00     0.118 A 
HETATM    4  S1  LIG X 999       0.855  -2.656   1.561  1.00  0.00    -0.076 SA
HETATM    5  C3  LIG X 999      -0.125  -1.320   1.798  1.00  0.00     0.020 A 
HETATM    6  C4  LIG X 999      -0.912  -1.078   2.915  1.00  0.00     0.021 A 
HETATM    7  C5  LIG X 999      -1.673   0.088   2.958  1.00  0.00     0.013 A 
HETATM    8  C6  LIG X 999      -1.643   1.002   1.887  1.00  0.00    -0.025 A 
HETATM    9  C7  LIG X 999      -2.422   2.168   1.962  1.00  0.00     0.012 A 
HETATM   10  C8  LIG X 999      -2.412   3.090   0.918  1.00  0.00     0.001 A 
HETATM   11  C9  LIG X 999      -1.627   2.861  -0.209  1.00  0.00     0.001 A 
HETATM   12  C10 LIG X 999      -0.844   1.708  -0.305  1.00  0.00     0.013 A 
HETATM   13  C11 LIG X 999      -0.831   0.752   0.736  1.00  0.00    -0.012 A 
HETATM   14  C12 LIG X 999      -0.057  -0.448   0.708  1.00  0.00     0.026 A 
HETATM   15  C13 LIG X 999       0.825  -0.940  -0.296  1.00  0.00     0.133 A 
ENDROOT
BRANCH  15  16
HETATM   16  N2  LIG X 999       1.087  -0.248  -1.526  1.00  0.00    -0.070 NA
HETATM   17  N3  LIG X 999       1.848  -0.670  -2.397  1.00  0.00    -0.162 NA
HETATM   18  N4  LIG X 999       2.607  -1.083  -3.273  1.00  0.00     0.068 N 
ENDBRANCH  15  16
TORSDOF 1
