REMARK  3 active torsions:
REMARK  status: ('A' for Active; 'I' for Inactive)
REMARK    1  A    between atoms: C3_3  and  O1_4 
REMARK    2  A    between atoms: O1_4  and  C4_5 
REMARK    3  A    between atoms: C6_7  and  N1_8 
ROOT
HETATM    1  C1  LIG X 999      -4.950   1.879   2.495  1.00  0.00     0.014 C 
HETATM    2  C2  LIG X 999      -4.542   1.124   1.645  1.00  0.00    -0.091 C 
HETATM    3  C3  LIG X 999      -4.059   0.206   0.607  1.00  0.00     0.268 C 
ENDROOT
BRANCH   3   4
HETATM    4  O1  LIG X 999      -2.840  -0.413   1.012  1.00  0.00    -0.339 OA
BRANCH   4   5
HETATM    5  C4  LIG X 999      -1.577   0.199   0.978  1.00  0.00     0.079 A 
HETATM    6  C5  LIG X 999      -1.388   1.571   0.676  1.00  0.00     0.072 A 
HETATM    7  C6  LIG X 999      -0.087   2.142   0.627  1.00  0.00     0.108 A 
HETATM    8  C7  LIG X 999       1.047   1.320   0.887  1.00  0.00     0.029 A 
HETATM    9  C8  LIG X 999       2.412   1.726   0.889  1.00  0.00     0.047 A 
HETATM   10  C12 LIG X 999       0.796  -0.022   1.183  1.00  0.00    -0.006 A 
HETATM   11 CL1  LIG X 999       2.938   3.389   0.642  1.00  0.00    -0.083 Cl
HETATM   12  C9  LIG X 999       3.425   0.770   1.143  1.00  0.00     0.025 A 
HETATM   13  C10 LIG X 999       3.103  -0.572   1.410  1.00  0.00     0.010 A 
HETATM   14  C11 LIG X 999       1.767  -0.941   1.434  1.00  0.00    -0.046 A 
HETATM   15  C15 LIG X 999       1.166  -2.282   1.713  1.00  0.00     0.044 A 
HETATM   16  C14 LIG X 999      -0.358  -2.032   1.561  1.00  0.00     0.047 A 
HETATM   17  C13 LIG X 999      -0.445  -0.571   1.244  1.00  0.00    -0.013 A 
BRANCH   7  18
HETATM   18  N1  LIG X 999       0.077   3.531   0.302  1.00  0.00    -0.072 NA
HETATM   19  N2  LIG X 999      -0.836   4.349   0.431  1.00  0.00    -0.162 NA
HETATM   20  N3  LIG X 999      -1.741   5.168   0.576  1.00  0.00     0.068 N 
ENDBRANCH   7  18
ENDBRANCH   4   5
ENDBRANCH   3   4
TORSDOF 3
