REMARK  7 active torsions:
REMARK  status: ('A' for Active; 'I' for Inactive)
REMARK    1  A    between atoms: N3_3  and  C1_4 
REMARK    2  A    between atoms: C1_4  and  C2_5 
REMARK    3  A    between atoms: C2_5  and  O1_6 
REMARK    4  A    between atoms: C2_5  and  C3_7 
REMARK    5  A    between atoms: C3_7  and  O2_8 
REMARK    6  A    between atoms: O2_8  and  C4_9 
REMARK    7  A    between atoms: C7_12  and  N4_13 
ROOT
HETATM    1  N1  LIG X 999       5.176  -0.682  -1.730  1.00  0.00     0.068 N 
HETATM    2  N2  LIG X 999       4.016  -0.329  -1.530  1.00  0.00    -0.168 NA
HETATM    3  N3  LIG X 999       2.853   0.025  -1.330  1.00  0.00    -0.113 NA
ENDROOT
BRANCH   3   4
HETATM    4  C1  LIG X 999       2.546   1.212  -0.537  1.00  0.00     0.223 C 
BRANCH   4   5
HETATM    5  C2  LIG X 999       2.913   1.028   0.950  1.00  0.00     0.165 C 
BRANCH   5   6
HETATM    6  O1  LIG X 999       4.298   0.839   1.087  1.00  0.00    -0.392 OA
HETATM    7  H4  LIG X 999       4.727   1.720   0.926  1.00  0.00     0.210 HD
ENDBRANCH   5   6
BRANCH   5   8
HETATM    8  C3  LIG X 999       2.179  -0.149   1.613  1.00  0.00     0.209 C 
BRANCH   8   9
HETATM    9  O2  LIG X 999       0.786   0.134   1.777  1.00  0.00    -0.348 OA
BRANCH   9  10
HETATM   10  C4  LIG X 999      -0.245  -0.125   0.854  1.00  0.00     0.080 A 
HETATM   11  C5  LIG X 999      -0.084  -1.024  -0.215  1.00  0.00     0.040 A 
HETATM   12  C6  LIG X 999      -1.123  -1.257  -1.114  1.00  0.00     0.038 A 
HETATM   13  C7  LIG X 999      -2.359  -0.607  -0.970  1.00  0.00     0.104 A 
HETATM   14  C8  LIG X 999      -2.547   0.289   0.104  1.00  0.00     0.008 A 
HETATM   15  C9  LIG X 999      -3.775   0.957   0.286  1.00  0.00     0.015 A 
HETATM   16  C13 LIG X 999      -1.485   0.527   1.020  1.00  0.00     0.010 A 
HETATM   17  C10 LIG X 999      -3.950   1.843   1.351  1.00  0.00     0.001 A 
HETATM   18  C11 LIG X 999      -2.909   2.076   2.247  1.00  0.00     0.001 A 
HETATM   19  C12 LIG X 999      -1.684   1.427   2.087  1.00  0.00     0.015 A 
BRANCH  13  20
HETATM   20  N4  LIG X 999      -3.430  -0.848  -1.900  1.00  0.00    -0.072 NA
HETATM   21  N5  LIG X 999      -3.318  -1.619  -2.854  1.00  0.00    -0.162 NA
HETATM   22  N6  LIG X 999      -3.208  -2.389  -3.808  1.00  0.00     0.068 N 
ENDBRANCH  13  20
ENDBRANCH   9  10
ENDBRANCH   8   9
ENDBRANCH   5   8
ENDBRANCH   4   5
ENDBRANCH   3   4
TORSDOF 7
