REMARK  3 active torsions:
REMARK  status: ('A' for Active; 'I' for Inactive)
REMARK    1  A    between atoms: N3_3  and  C1_4 
REMARK    2  A    between atoms: C2_5  and  N4_6 
REMARK    3  A    between atoms: C3_9  and  N7_10 
ROOT
HETATM    1  N1  LIG X 999       2.550   4.561   0.820  1.00  0.00     0.068 N 
HETATM    2  N2  LIG X 999       2.565   3.427   0.344  1.00  0.00    -0.162 NA
HETATM    3  N3  LIG X 999       2.587   2.293  -0.137  1.00  0.00    -0.067 NA
ENDROOT
BRANCH   3   4
HETATM    4  C1  LIG X 999       1.563   1.305   0.090  1.00  0.00     0.164 A 
HETATM    5  C2  LIG X 999       1.708   0.057  -0.541  1.00  0.00     0.160 A 
HETATM    6  C3  LIG X 999       0.751  -0.967  -0.324  1.00  0.00     0.138 A 
HETATM    7  C4  LIG X 999      -0.410  -0.691   0.444  1.00  0.00     0.011 A 
HETATM    8  C5  LIG X 999      -1.461  -1.627   0.565  1.00  0.00     0.015 A 
HETATM    9  C9  LIG X 999      -0.546   0.571   1.080  1.00  0.00     0.016 A 
HETATM   10  C6  LIG X 999      -2.584  -1.344   1.343  1.00  0.00     0.001 A 
HETATM   11  C7  LIG X 999      -2.692  -0.122   2.000  1.00  0.00     0.001 A 
HETATM   12  C8  LIG X 999      -1.685   0.834   1.867  1.00  0.00     0.015 A 
HETATM   13  C10 LIG X 999       0.444   1.554   0.912  1.00  0.00     0.152 A 
HETATM   14  O1  LIG X 999       0.304   2.781   1.557  1.00  0.00    -0.188 OA
BRANCH   5  15
HETATM   15  N4  LIG X 999       2.876  -0.134  -1.366  1.00  0.00    -0.067 NA
HETATM   16  N5  LIG X 999       3.033  -1.088  -2.129  1.00  0.00    -0.162 NA
HETATM   17  N6  LIG X 999       3.197  -2.036  -2.896  1.00  0.00     0.068 N 
ENDBRANCH   5  15
BRANCH   6  18
HETATM   18  N7  LIG X 999       0.994  -2.277  -0.859  1.00  0.00    -0.069 NA
HETATM   19  N8  LIG X 999       0.920  -3.289  -0.161  1.00  0.00    -0.162 NA
HETATM   20  N9  LIG X 999       0.849  -4.301   0.535  1.00  0.00     0.068 N 
ENDBRANCH   6  18
ENDBRANCH   3   4
TORSDOF 3
