REMARK  2 active torsions:
REMARK  status: ('A' for Active; 'I' for Inactive)
REMARK    1  A    between atoms: N3_3  and  C1_4 
REMARK    2  A    between atoms: C6_9  and  N4_10 
ROOT
HETATM    1  N1  LIG X 999      -2.162   4.562   1.070  1.00  0.00     0.068 N 
HETATM    2  N2  LIG X 999      -1.642   3.662   0.413  1.00  0.00    -0.162 NA
HETATM    3  N3  LIG X 999      -1.121   2.761  -0.247  1.00  0.00    -0.072 NA
ENDROOT
BRANCH   3   4
HETATM    4  C1  LIG X 999      -1.085   1.395   0.200  1.00  0.00     0.104 A 
HETATM    5  C2  LIG X 999      -1.655   1.028   1.433  1.00  0.00     0.035 A 
HETATM    6  C3  LIG X 999      -1.619  -0.296   1.865  1.00  0.00     0.003 A 
HETATM    7  C4  LIG X 999      -1.017  -1.278   1.080  1.00  0.00     0.015 A 
HETATM    8  C5  LIG X 999      -0.436  -0.947  -0.159  1.00  0.00     0.005 A 
HETATM    9  C6  LIG X 999       0.177  -1.939  -0.961  1.00  0.00     0.069 A 
HETATM   10  C11 LIG X 999      -0.471   0.405  -0.603  1.00  0.00     0.008 A 
HETATM   11  C8  LIG X 999       0.747  -1.569  -2.195  1.00  0.00     0.032 A 
HETATM   12  C9  LIG X 999       0.711  -0.245  -2.626  1.00  0.00     0.003 A 
HETATM   13  C10 LIG X 999       0.109   0.736  -1.841  1.00  0.00     0.015 A 
BRANCH   9  14
HETATM   14  N4  LIG X 999       0.210  -3.305  -0.507  1.00  0.00    -0.233 NA
HETATM   15  C7  LIG X 999       0.738  -4.265  -1.157  1.00  0.00     0.163 C 
HETATM   16  S1  LIG X 999       1.405  -5.479  -1.979  1.00  0.00    -0.055 SA
ENDBRANCH   9  14
ENDBRANCH   3   4
TORSDOF 2
