REMARK  1 active torsions:
REMARK  status: ('A' for Active; 'I' for Inactive)
REMARK       I    between atoms: N3_3  and  C1_4 
REMARK    1  A    between atoms: C1_4  and  C2_6 
ROOT
HETATM    1  N1  LIG X 999      -1.545   4.190  -0.093  1.00  0.00     0.068 N 
HETATM    2  N2  LIG X 999      -2.202   3.441  -0.814  1.00  0.00    -0.159 NA
HETATM    3  N3  LIG X 999      -2.863   2.693  -1.536  1.00  0.00    -0.028 NA
HETATM    4  C1  LIG X 999      -2.731   1.266  -1.486  1.00  0.00     0.308 C 
HETATM    5  O1  LIG X 999      -3.618   0.562  -2.038  1.00  0.00    -0.263 OA
ENDROOT
BRANCH   4   6
HETATM    6  C2  LIG X 999      -1.601   0.595  -0.801  1.00  0.00     0.037 A 
HETATM    7  C3  LIG X 999      -0.298   1.117  -0.875  1.00  0.00     0.018 A 
HETATM    8  C4  LIG X 999       0.765   0.470  -0.240  1.00  0.00     0.013 A 
HETATM    9  C5  LIG X 999       0.546  -0.717   0.471  1.00  0.00    -0.026 A 
HETATM   10  C6  LIG X 999       1.607  -1.374   1.113  1.00  0.00     0.012 A 
HETATM   11  C10 LIG X 999      -0.759  -1.262   0.537  1.00  0.00    -0.025 A 
HETATM   12  C7  LIG X 999       1.375  -2.561   1.815  1.00  0.00     0.001 A 
HETATM   13  C8  LIG X 999       0.087  -3.099   1.881  1.00  0.00     0.001 A 
HETATM   14  C9  LIG X 999      -0.978  -2.454   1.245  1.00  0.00     0.012 A 
HETATM   15  C11 LIG X 999      -1.820  -0.605  -0.104  1.00  0.00     0.029 A 
ENDBRANCH   4   6
TORSDOF 1
