REMARK  6 active torsions:
REMARK  status: ('A' for Active; 'I' for Inactive)
REMARK    1  A    between atoms: C2_2  and  C3_3 
REMARK    2  A    between atoms: C6_6  and  N1_7 
REMARK    3  A    between atoms: N1_7  and  C7_8 
REMARK    4  A    between atoms: C7_8  and  N2_10 
REMARK    5  A    between atoms: N2_10  and  C8_11 
REMARK    6  A    between atoms: C13_16  and  N3_17 
ROOT
HETATM    1  C8  LIG X 999      -0.424   0.168  -0.005  1.00  0.00     0.045 A 
HETATM    2  C9  LIG X 999      -1.743   0.358  -0.437  1.00  0.00     0.030 A 
HETATM    3  C10 LIG X 999      -2.678  -0.666  -0.330  1.00  0.00     0.003 A 
HETATM    4  C11 LIG X 999      -2.312  -1.906   0.190  1.00  0.00     0.014 A 
HETATM    5  C12 LIG X 999      -0.987  -2.149   0.610  1.00  0.00     0.003 A 
HETATM    6  C13 LIG X 999      -0.582  -3.409   1.135  1.00  0.00     0.036 A 
HETATM    7  C14 LIG X 999       0.729  -3.571   1.603  1.00  0.00     0.030 A 
HETATM    8  C15 LIG X 999       1.644  -2.525   1.539  1.00  0.00     0.003 A 
HETATM    9  C16 LIG X 999       1.272  -1.296   1.003  1.00  0.00     0.014 A 
HETATM   10  C17 LIG X 999      -0.036  -1.088   0.526  1.00  0.00     0.003 A 
ENDROOT
BRANCH   1  11
HETATM   11  N2  LIG X 999       0.529   1.234  -0.167  1.00  0.00    -0.333 N 
HETATM   12  H13 LIG X 999       1.439   1.003  -0.622  1.00  0.00     0.168 HD
BRANCH  11  13
HETATM   13  C7  LIG X 999       0.284   2.594   0.243  1.00  0.00     0.172 C 
HETATM   14  S1  LIG X 999      -0.826   2.925   1.408  1.00  0.00    -0.041 SA
BRANCH  13  15
HETATM   15  N1  LIG X 999       1.098   3.665  -0.255  1.00  0.00    -0.362 N 
HETATM   16  H12 LIG X 999       0.904   4.637   0.077  1.00  0.00     0.162 HD
BRANCH  15  17
HETATM   17  C6  LIG X 999       2.125   3.443  -1.272  1.00  0.00     0.092 A 
HETATM   18  C3  LIG X 999       3.560   3.366  -0.747  1.00  0.00    -0.022 A 
HETATM   19  C4  LIG X 999       4.523   2.494  -1.562  1.00  0.00     0.017 C 
HETATM   20  C5  LIG X 999       3.074   4.625  -1.468  1.00  0.00     0.037 A 
BRANCH  18  21
HETATM   21  C2  LIG X 999       3.852   3.576   0.755  1.00  0.00     0.007 C 
HETATM   22  C1  LIG X 999       3.769   2.273   1.545  1.00  0.00     0.006 C 
ENDBRANCH  18  21
ENDBRANCH  15  17
ENDBRANCH  13  15
ENDBRANCH  11  13
ENDBRANCH   1  11
BRANCH   6  23
HETATM   23  N3  LIG X 999      -1.464  -4.541   1.194  1.00  0.00    -0.398 N 
HETATM   24  H17 LIG X 999      -1.172  -5.407   1.701  1.00  0.00     0.156 HD
HETATM   25  H18 LIG X 999      -2.352  -4.602   0.654  1.00  0.00     0.156 HD
ENDBRANCH   6  23
TORSDOF 6
