REMARK  2 active torsions:
REMARK  status: ('A' for Active; 'I' for Inactive)
REMARK    1  A    between atoms: N1_1  and  C1_2 
REMARK    2  A    between atoms: C6_7  and  N2_8 
ROOT
HETATM    1  N2  LIG X 999       3.065  -0.207   0.717  1.00  0.00    -0.233 NA
HETATM    2  C7  LIG X 999       3.430  -1.295   0.166  1.00  0.00     0.163 C 
HETATM    3  S1  LIG X 999       3.891  -2.672  -0.533  1.00  0.00    -0.055 SA
ENDROOT
BRANCH   1   4
HETATM    4  C6  LIG X 999       1.831   0.448   0.388  1.00  0.00     0.069 A 
HETATM    5  C5  LIG X 999       0.569  -0.207   0.437  1.00  0.00     0.005 A 
HETATM    6  C4  LIG X 999       0.439  -1.513   0.951  1.00  0.00     0.015 A 
HETATM    7  C11 LIG X 999      -0.603   0.485   0.004  1.00  0.00     0.003 A 
HETATM    8  C3  LIG X 999      -0.801  -2.143   0.988  1.00  0.00     0.003 A 
HETATM    9  C2  LIG X 999      -1.935  -1.492   0.516  1.00  0.00     0.030 A 
HETATM   10  C1  LIG X 999      -1.857  -0.186   0.013  1.00  0.00     0.036 A 
HETATM   11  C10 LIG X 999      -0.487   1.837  -0.385  1.00  0.00     0.014 A 
HETATM   12  C9  LIG X 999       0.749   2.480  -0.367  1.00  0.00     0.003 A 
HETATM   13  C8  LIG X 999       1.895   1.793   0.016  1.00  0.00     0.032 A 
BRANCH  10  14
HETATM   14  N1  LIG X 999      -3.060   0.418  -0.487  1.00  0.00    -0.398 N 
HETATM   15  H1  LIG X 999      -3.057   1.247  -1.118  1.00  0.00     0.156 HD
HETATM   16  H2  LIG X 999      -3.983  -0.047  -0.336  1.00  0.00     0.156 HD
ENDBRANCH  10  14
ENDBRANCH   1   4
TORSDOF 2
