REMARK  9 active torsions:
REMARK  status: ('A' for Active; 'I' for Inactive)
REMARK    1  A    between atoms: N3_3  and  C1_4 
REMARK    2  A    between atoms: C6_9  and  N4_10 
REMARK    3  A    between atoms: N4_10  and  C7_11 
REMARK    4  A    between atoms: C7_11  and  S2_13 
REMARK    5  A    between atoms: S2_13  and  C8_14 
REMARK    6  A    between atoms: C8_14  and  C9_15 
REMARK    7  A    between atoms: C9_15  and  C10_16 
REMARK    8  A    between atoms: C10_16  and  N5_17 
REMARK       I    between atoms: N5_17  and  C11_18 
REMARK    9  A    between atoms: C11_18  and  C12_20 
ROOT
HETATM    1  N1  LIG X 999      -8.657  -2.056   0.069  1.00  0.00     0.068 N 
HETATM    2  N2  LIG X 999      -7.703  -1.280   0.037  1.00  0.00    -0.162 NA
HETATM    3  N3  LIG X 999      -6.749  -0.501   0.006  1.00  0.00    -0.072 NA
ENDROOT
BRANCH   3   4
HETATM    4  C1  LIG X 999      -5.396  -0.925   0.243  1.00  0.00     0.104 A 
HETATM    5  C2  LIG X 999      -5.103  -2.274   0.515  1.00  0.00     0.035 A 
HETATM    6  C3  LIG X 999      -3.790  -2.684   0.737  1.00  0.00     0.003 A 
HETATM    7  C4  LIG X 999      -2.747  -1.761   0.699  1.00  0.00     0.014 A 
HETATM    8  C5  LIG X 999      -3.003  -0.401   0.444  1.00  0.00     0.003 A 
HETATM    9  C6  LIG X 999      -1.952   0.549   0.400  1.00  0.00     0.044 A 
HETATM   10  C17 LIG X 999      -4.342   0.018   0.203  1.00  0.00     0.008 A 
HETATM   11  C14 LIG X 999      -2.247   1.893   0.129  1.00  0.00     0.030 A 
HETATM   12  C15 LIG X 999      -3.557   2.299  -0.113  1.00  0.00     0.003 A 
HETATM   13  C16 LIG X 999      -4.598   1.374  -0.076  1.00  0.00     0.015 A 
BRANCH   9  14
HETATM   14  N4  LIG X 999      -0.597   0.170   0.699  1.00  0.00    -0.341 N 
HETATM   15  H4  LIG X 999      -0.417  -0.381   1.568  1.00  0.00     0.167 HD
BRANCH  14  16
HETATM   16  C7  LIG X 999       0.535   0.572  -0.085  1.00  0.00     0.139 C 
HETATM   17  S1  LIG X 999       0.379   1.008  -1.658  1.00  0.00    -0.053 SA
BRANCH  16  18
HETATM   18  S2  LIG X 999       2.180   0.412   0.602  1.00  0.00    -0.100 SA
BRANCH  18  19
HETATM   19  C8  LIG X 999       2.169   2.094   1.315  1.00  0.00     0.083 C 
BRANCH  19  20
HETATM   20  C9  LIG X 999       3.504   2.420   1.998  1.00  0.00     0.032 C 
BRANCH  20  21
HETATM   21  C10 LIG X 999       4.597   2.853   1.010  1.00  0.00     0.154 C 
BRANCH  21  22
HETATM   22  N5  LIG X 999       4.988   1.757   0.128  1.00  0.00    -0.249 NA
HETATM   23  C11 LIG X 999       5.776   0.640   0.551  1.00  0.00     0.312 C 
HETATM   24  O1  LIG X 999       6.248   0.597   1.719  1.00  0.00    -0.262 OA
BRANCH  23  25
HETATM   25  C12 LIG X 999       6.035  -0.460  -0.382  1.00  0.00     0.248 A 
HETATM   26  N6  LIG X 999       5.559  -0.497  -1.644  1.00  0.00    -0.208 NA
HETATM   27  C13 LIG X 999       6.050  -1.672  -2.080  1.00  0.00     0.289 A 
HETATM   28  O2  LIG X 999       6.753  -2.270  -1.150  1.00  0.00    -0.205 OA
HETATM   29  N7  LIG X 999       6.769  -1.545  -0.073  1.00  0.00    -0.101 NA
ENDBRANCH  23  25
ENDBRANCH  21  22
ENDBRANCH  20  21
ENDBRANCH  19  20
ENDBRANCH  18  19
ENDBRANCH  16  18
ENDBRANCH  14  16
ENDBRANCH   9  14
ENDBRANCH   3   4
TORSDOF 9
