REMARK  5 active torsions:
REMARK  status: ('A' for Active; 'I' for Inactive)
REMARK    1  A    between atoms: C3_3  and  S1_4 
REMARK    2  A    between atoms: S1_4  and  C4_7 
REMARK    3  A    between atoms: C10_13  and  C11_14 
REMARK    4  A    between atoms: C11_14  and  C12_16 
REMARK    5  A    between atoms: C12_16  and  N1_17 
ROOT
HETATM    1  C1  LIG X 999       5.061  -1.431  -0.673  1.00  0.00     0.013 C 
HETATM    2  C2  LIG X 999       4.744  -0.295  -0.422  1.00  0.00    -0.102 C 
HETATM    3  C3  LIG X 999       4.355   1.084  -0.118  1.00  0.00     0.238 C 
ENDROOT
BRANCH   3   4
HETATM    4  S1  LIG X 999       3.183   1.670  -1.325  1.00  0.00     0.185 S 
HETATM    5  O1  LIG X 999       2.793   3.084  -0.998  1.00  0.00    -0.222 OA
HETATM    6  O2  LIG X 999       3.811   1.650  -2.691  1.00  0.00    -0.222 OA
BRANCH   4   7
HETATM    7  C4  LIG X 999       1.749   0.647  -1.308  1.00  0.00     0.060 A 
HETATM    8  C5  LIG X 999       1.624  -0.410  -2.220  1.00  0.00     0.024 A 
HETATM    9  C6  LIG X 999       0.496  -1.234  -2.196  1.00  0.00     0.014 A 
HETATM   10  C7  LIG X 999      -0.519  -1.013  -1.253  1.00  0.00    -0.026 A 
HETATM   11  C8  LIG X 999      -1.655  -1.832  -1.221  1.00  0.00     0.013 A 
HETATM   12  C14 LIG X 999      -0.394   0.046  -0.324  1.00  0.00    -0.024 A 
HETATM   13  C9  LIG X 999      -2.659  -1.607  -0.276  1.00  0.00     0.016 A 
HETATM   14  C10 LIG X 999      -2.547  -0.562   0.659  1.00  0.00     0.012 A 
HETATM   15  C13 LIG X 999      -1.407   0.265   0.623  1.00  0.00     0.027 A 
HETATM   16  C15 LIG X 999       0.743   0.869  -0.359  1.00  0.00     0.035 A 
BRANCH  14  17
HETATM   17  C11 LIG X 999      -3.629  -0.341   1.655  1.00  0.00     0.181 C 
HETATM   18  O3  LIG X 999      -4.760  -0.867   1.464  1.00  0.00    -0.290 OA
BRANCH  17  19
HETATM   19  C12 LIG X 999      -3.425   0.538   2.864  1.00  0.00     0.272 C 
BRANCH  19  20
HETATM   20  N1  LIG X 999      -4.418   0.264   3.897  1.00  0.00    -0.108 NA
HETATM   21  N2  LIG X 999      -4.423  -0.808   4.503  1.00  0.00    -0.167 NA
HETATM   22  N3  LIG X 999      -4.427  -1.878   5.109  1.00  0.00     0.068 N 
ENDBRANCH  19  20
ENDBRANCH  17  19
ENDBRANCH  14  17
ENDBRANCH   4   7
ENDBRANCH   3   4
TORSDOF 5
