REMARK  3 active torsions:
REMARK  status: ('A' for Active; 'I' for Inactive)
REMARK    1  A    between atoms: N3_3  and  C1_4 
REMARK    2  A    between atoms: C1_4  and  C2_5 
REMARK    3  A    between atoms: C2_5  and  C3_7 
ROOT
HETATM    1  N1  LIG X 999       4.594  -2.182   2.825  1.00  0.00     0.068 N 
HETATM    2  N2  LIG X 999       4.009  -1.866   1.790  1.00  0.00    -0.167 NA
HETATM    3  N3  LIG X 999       3.423  -1.550   0.755  1.00  0.00    -0.108 NA
ENDROOT
BRANCH   3   4
HETATM    4  C1  LIG X 999       3.598  -0.225   0.179  1.00  0.00     0.272 C 
BRANCH   4   5
HETATM    5  C2  LIG X 999       2.767  -0.101  -1.066  1.00  0.00     0.181 C 
HETATM    6  O1  LIG X 999       3.354  -0.177  -2.180  1.00  0.00    -0.290 OA
BRANCH   5   7
HETATM    7  C3  LIG X 999       1.289   0.081  -1.025  1.00  0.00     0.012 A 
HETATM    8  C4  LIG X 999       0.581   0.311  -2.220  1.00  0.00     0.016 A 
HETATM    9  C5  LIG X 999      -0.805   0.485  -2.210  1.00  0.00     0.013 A 
HETATM   10  C6  LIG X 999      -1.515   0.430  -1.004  1.00  0.00    -0.026 A 
HETATM   11  C7  LIG X 999      -2.908   0.602  -0.985  1.00  0.00     0.012 A 
HETATM   12  C11 LIG X 999      -0.820   0.196   0.206  1.00  0.00    -0.025 A 
HETATM   13  C8  LIG X 999      -3.605   0.543   0.226  1.00  0.00     0.001 A 
HETATM   14  C9  LIG X 999      -2.920   0.312   1.421  1.00  0.00     0.001 A 
HETATM   15  C10 LIG X 999      -1.533   0.139   1.415  1.00  0.00     0.012 A 
HETATM   16  C12 LIG X 999       0.573   0.024   0.188  1.00  0.00     0.027 A 
ENDBRANCH   5   7
ENDBRANCH   4   5
ENDBRANCH   3   4
TORSDOF 3
