REMARK  5 active torsions:
REMARK  status: ('A' for Active; 'I' for Inactive)
REMARK    1  A    between atoms: N3_3  and  C1_4 
REMARK    2  A    between atoms: C6_9  and  N4_10 
REMARK    3  A    between atoms: C8_14  and  N7_15 
REMARK    4  A    between atoms: C15_26  and  N11_27 
REMARK    5  A    between atoms: C18_33  and  N15_34 
ROOT
HETATM    1  N1  LIG X 999       1.139   5.560  -1.376  1.00  0.00     0.068 N 
HETATM    2  N2  LIG X 999       1.889   4.637  -1.061  1.00  0.00    -0.162 NA
HETATM    3  N3  LIG X 999       2.642   3.714  -0.746  1.00  0.00    -0.070 NA
ENDROOT
BRANCH   3   4
HETATM    4  C1  LIG X 999       2.164   2.396  -0.435  1.00  0.00     0.123 A 
HETATM    5  C2  LIG X 999       0.770   2.124  -0.488  1.00  0.00     0.053 A 
HETATM    6  C3  LIG X 999       0.342   0.841  -0.186  1.00  0.00     0.026 A 
HETATM    7  C4  LIG X 999       1.218  -0.125   0.176  1.00  0.00     0.023 A 
HETATM    8  C17 LIG X 999      -0.893   0.231  -0.175  1.00  0.00     0.149 A 
HETATM    9  C5  LIG X 999       2.587   0.060   0.280  1.00  0.00     0.040 A 
HETATM   10  C9  LIG X 999       0.542  -1.299   0.392  1.00  0.00     0.088 A 
HETATM   11  C6  LIG X 999       3.336  -1.081   0.691  1.00  0.00     0.109 A 
HETATM   12  C18 LIG X 999       3.094   1.349  -0.072  1.00  0.00     0.103 A 
HETATM   13  C7  LIG X 999       2.676  -2.321   0.888  1.00  0.00     0.072 A 
HETATM   14  C8  LIG X 999       1.268  -2.455   0.744  1.00  0.00     0.123 A 
HETATM   15  N10 LIG X 999      -0.792  -1.078   0.175  1.00  0.00    -0.258 N 
HETATM   16  C10 LIG X 999      -1.904  -1.870   0.249  1.00  0.00     0.266 A 
HETATM   17  O1  LIG X 999      -1.824  -3.080   0.587  1.00  0.00    -0.267 OA
HETATM   18  C11 LIG X 999      -3.162  -1.301  -0.056  1.00  0.00     0.064 A 
HETATM   19  C12 LIG X 999      -4.344  -2.059  -0.003  1.00  0.00     0.020 A 
HETATM   20  C16 LIG X 999      -3.225   0.073  -0.426  1.00  0.00     0.106 A 
HETATM   21  C13 LIG X 999      -5.570  -1.471  -0.310  1.00  0.00     0.004 A 
HETATM   22  C14 LIG X 999      -5.635  -0.126  -0.673  1.00  0.00     0.037 A 
HETATM   23  C15 LIG X 999      -4.479   0.661  -0.737  1.00  0.00     0.122 A 
HETATM   24  N14 LIG X 999      -2.079   0.807  -0.475  1.00  0.00    -0.226 NA
BRANCH  11  25
HETATM   25  N4  LIG X 999       4.740  -1.025   0.957  1.00  0.00    -0.072 NA
HETATM   26  N5  LIG X 999       5.186  -0.316   1.860  1.00  0.00    -0.162 NA
HETATM   27  N6  LIG X 999       5.630   0.391   2.763  1.00  0.00     0.068 N 
ENDBRANCH  11  25
BRANCH  14  28
HETATM   28  N7  LIG X 999       0.625  -3.718   0.952  1.00  0.00    -0.070 NA
HETATM   29  N8  LIG X 999       1.248  -4.736   1.257  1.00  0.00    -0.162 NA
HETATM   30  N9  LIG X 999       1.867  -5.754   1.561  1.00  0.00     0.068 N 
ENDBRANCH  14  28
BRANCH  12  31
HETATM   31  N15 LIG X 999       4.523   1.539  -0.109  1.00  0.00    -0.231 NA
HETATM   32  C19 LIG X 999       5.142   2.587  -0.479  1.00  0.00     0.163 C 
HETATM   33  S1  LIG X 999       5.941   3.908  -0.947  1.00  0.00    -0.055 SA
ENDBRANCH  12  31
BRANCH  23  34
HETATM   34  N11 LIG X 999      -4.636   2.039  -1.120  1.00  0.00    -0.070 NA
HETATM   35  N12 LIG X 999      -3.701   2.835  -1.216  1.00  0.00    -0.162 NA
HETATM   36  N13 LIG X 999      -2.773   3.636  -1.315  1.00  0.00     0.068 N 
ENDBRANCH  23  34
ENDBRANCH   3   4
TORSDOF 5
