REMARK  5 active torsions:
REMARK  status: ('A' for Active; 'I' for Inactive)
REMARK    1  A    between atoms: N3_3  and  C1_4 
REMARK    2  A    between atoms: C6_9  and  N4_10 
REMARK    3  A    between atoms: C8_14  and  N7_15 
REMARK    4  A    between atoms: C15_26  and  N11_27 
REMARK    5  A    between atoms: C18_33  and  N15_34 
ROOT
HETATM    1  N1  LIG X 999       0.404  -0.548  -6.027  1.00  0.00     0.068 N 
HETATM    2  N2  LIG X 999       1.361  -0.461  -5.259  1.00  0.00    -0.162 NA
HETATM    3  N3  LIG X 999       2.321  -0.374  -4.491  1.00  0.00    -0.070 NA
ENDROOT
BRANCH   3   4
HETATM    4  C1  LIG X 999       2.162  -0.174  -3.078  1.00  0.00     0.121 A 
HETATM    5  C2  LIG X 999       0.865  -0.091  -2.505  1.00  0.00     0.053 A 
HETATM    6  C3  LIG X 999       0.774   0.068  -1.130  1.00  0.00     0.026 A 
HETATM    7  C4  LIG X 999       1.883   0.165  -0.356  1.00  0.00     0.023 A 
HETATM    8  C17 LIG X 999      -0.286   0.187  -0.258  1.00  0.00     0.149 A 
HETATM    9  C5  LIG X 999       3.181   0.115  -0.839  1.00  0.00     0.038 A 
HETATM   10  C9  LIG X 999       1.513   0.347   0.952  1.00  0.00     0.088 A 
HETATM   11  C6  LIG X 999       4.213   0.317   0.119  1.00  0.00     0.109 A 
HETATM   12  C18 LIG X 999       3.328  -0.093  -2.248  1.00  0.00     0.071 A 
HETATM   13  C7  LIG X 999       3.865   0.492   1.492  1.00  0.00     0.072 A 
HETATM   14  C8  LIG X 999       2.513   0.507   1.932  1.00  0.00     0.123 A 
HETATM   15  N10 LIG X 999       0.144   0.356   1.021  1.00  0.00    -0.258 N 
HETATM   16  C10 LIG X 999      -0.748   0.498   2.048  1.00  0.00     0.266 A 
HETATM   17  O1  LIG X 999      -0.361   0.651   3.236  1.00  0.00    -0.267 OA
HETATM   18  C11 LIG X 999      -2.129   0.468   1.753  1.00  0.00     0.064 A 
HETATM   19  C12 LIG X 999      -3.106   0.608   2.754  1.00  0.00     0.020 A 
HETATM   20  C16 LIG X 999      -2.536   0.292   0.402  1.00  0.00     0.106 A 
HETATM   21  C13 LIG X 999      -4.461   0.573   2.422  1.00  0.00     0.004 A 
HETATM   22  C14 LIG X 999      -4.860   0.400   1.095  1.00  0.00     0.037 A 
HETATM   23  C15 LIG X 999      -3.902   0.258   0.074  1.00  0.00     0.122 A 
HETATM   24  N14 LIG X 999      -1.600   0.155  -0.578  1.00  0.00    -0.226 NA
BRANCH  11  25
HETATM   25  N4  LIG X 999       5.585   0.404  -0.294  1.00  0.00    -0.072 NA
HETATM   26  N5  LIG X 999       6.509   0.593   0.499  1.00  0.00    -0.162 NA
HETATM   27  N6  LIG X 999       7.432   0.782   1.290  1.00  0.00     0.068 N 
ENDBRANCH  11  25
BRANCH  14  28
HETATM   28  N7  LIG X 999       2.192   0.694   3.315  1.00  0.00    -0.070 NA
HETATM   29  N8  LIG X 999       3.054   0.836   4.183  1.00  0.00    -0.162 NA
HETATM   30  N9  LIG X 999       3.913   0.979   5.052  1.00  0.00     0.068 N 
ENDBRANCH  14  28
BRANCH  12  31
HETATM   31  N15 LIG X 999       4.617  -0.278  -2.849  1.00  0.00    -0.396 N 
HETATM   32  H6  LIG X 999       5.368  -0.811  -2.360  1.00  0.00     0.156 HD
HETATM   33  H7  LIG X 999       4.768  -0.085  -3.864  1.00  0.00     0.156 HD
ENDBRANCH  12  31
BRANCH  23  34
HETATM   34  N11 LIG X 999      -4.292   0.079  -1.296  1.00  0.00    -0.070 NA
HETATM   35  N12 LIG X 999      -5.472   0.041  -1.648  1.00  0.00    -0.162 NA
HETATM   36  N13 LIG X 999      -6.650   0.003  -2.000  1.00  0.00     0.068 N 
ENDBRANCH  23  34
ENDBRANCH   3   4
TORSDOF 5
