REMARK  2 active torsions:
REMARK  status: ('A' for Active; 'I' for Inactive)
REMARK    1  A    between atoms: N3_3  and  C1_4 
REMARK    2  A    between atoms: C6_9  and  N4_10 
ROOT
HETATM    1  N1  LIG X 999      -4.060   1.456   0.842  1.00  0.00     0.068 N 
HETATM    2  N2  LIG X 999      -3.567   0.508   0.231  1.00  0.00    -0.162 NA
HETATM    3  N3  LIG X 999      -3.077  -0.443  -0.378  1.00  0.00    -0.072 NA
ENDROOT
BRANCH   3   4
HETATM    4  C1  LIG X 999      -1.702  -0.824  -0.219  1.00  0.00     0.104 A 
HETATM    5  C2  LIG X 999      -1.429  -2.184  -0.053  1.00  0.00     0.035 A 
HETATM    6  C3  LIG X 999      -0.130  -2.626   0.175  1.00  0.00     0.003 A 
HETATM    7  C4  LIG X 999       0.922  -1.716   0.243  1.00  0.00     0.014 A 
HETATM    8  C5  LIG X 999       0.697  -0.336   0.058  1.00  0.00     0.003 A 
HETATM    9  C6  LIG X 999       1.761   0.607   0.101  1.00  0.00     0.036 A 
HETATM   10  C10 LIG X 999      -0.630   0.112  -0.221  1.00  0.00     0.008 A 
HETATM   11  C7  LIG X 999       1.504   1.949  -0.208  1.00  0.00     0.030 A 
HETATM   12  C8  LIG X 999       0.221   2.371  -0.539  1.00  0.00     0.003 A 
HETATM   13  C9  LIG X 999      -0.837   1.467  -0.548  1.00  0.00     0.015 A 
BRANCH   9  14
HETATM   14  N4  LIG X 999       3.102   0.242   0.463  1.00  0.00    -0.398 N 
HETATM   15  H4  LIG X 999       3.332  -0.639   0.969  1.00  0.00     0.156 HD
HETATM   16  H5  LIG X 999       3.882   0.927   0.346  1.00  0.00     0.156 HD
ENDBRANCH   9  14
ENDBRANCH   3   4
TORSDOF 2
