REMARK  5 active torsions:
REMARK  status: ('A' for Active; 'I' for Inactive)
REMARK    1  A    between atoms: N3_3  and  C1_4 
REMARK    2  A    between atoms: C6_9  and  N4_10 
REMARK    3  A    between atoms: C8_14  and  N7_15 
REMARK    4  A    between atoms: C15_26  and  N11_27 
REMARK    5  A    between atoms: C18_33  and  N15_34 
ROOT
HETATM    1  N1  LIG X 999      -1.878   5.269   2.051  1.00  0.00     0.068 N 
HETATM    2  N2  LIG X 999      -2.491   4.303   1.599  1.00  0.00    -0.162 NA
HETATM    3  N3  LIG X 999      -3.107   3.337   1.146  1.00  0.00    -0.070 NA
ENDROOT
BRANCH   3   4
HETATM    4  C1  LIG X 999      -2.450   2.122   0.755  1.00  0.00     0.126 A 
HETATM    5  C2  LIG X 999      -1.037   2.000   0.840  1.00  0.00     0.053 A 
HETATM    6  C3  LIG X 999      -0.462   0.822   0.383  1.00  0.00     0.026 A 
HETATM    7  C4  LIG X 999      -1.223  -0.201  -0.076  1.00  0.00     0.023 A 
HETATM    8  C17 LIG X 999       0.838   0.381   0.268  1.00  0.00     0.149 A 
HETATM    9  C5  LIG X 999      -2.608  -0.182  -0.133  1.00  0.00     0.043 A 
HETATM   10  C9  LIG X 999      -0.414  -1.239  -0.462  1.00  0.00     0.088 A 
HETATM   11  C6  LIG X 999      -3.229  -1.400  -0.537  1.00  0.00     0.109 C 
HETATM   12  C18 LIG X 999      -3.237   1.055   0.221  1.00  0.00     0.138 A 
HETATM   13  C7  LIG X 999      -2.423  -2.472  -1.001  1.00  0.00     0.072 C 
HETATM   14  C8  LIG X 999      -1.003  -2.413  -0.977  1.00  0.00     0.123 C 
HETATM   15  N10 LIG X 999       0.889  -0.875  -0.249  1.00  0.00    -0.258 N 
HETATM   16  C10 LIG X 999       2.087  -1.505  -0.440  1.00  0.00     0.266 A 
HETATM   17  O1  LIG X 999       2.145  -2.672  -0.907  1.00  0.00    -0.267 OA
HETATM   18  C11 LIG X 999       3.275  -0.819  -0.098  1.00  0.00     0.064 A 
HETATM   19  C12 LIG X 999       4.539  -1.407  -0.271  1.00  0.00     0.020 A 
HETATM   20  C16 LIG X 999       3.180   0.499   0.437  1.00  0.00     0.106 A 
HETATM   21  C13 LIG X 999       5.693  -0.706   0.076  1.00  0.00     0.004 A 
HETATM   22  C14 LIG X 999       5.604   0.584   0.599  1.00  0.00     0.037 A 
HETATM   23  C15 LIG X 999       4.362   1.202   0.786  1.00  0.00     0.122 A 
HETATM   24  N14 LIG X 999       1.954   1.066   0.607  1.00  0.00    -0.226 NA
BRANCH  11  25
HETATM   25  N4  LIG X 999      -4.628  -1.655  -0.371  1.00  0.00    -0.072 NA
HETATM   26  N5  LIG X 999      -5.220  -1.352   0.666  1.00  0.00    -0.162 NA
HETATM   27  N6  LIG X 999      -5.812  -1.053   1.702  1.00  0.00     0.068 N 
ENDBRANCH  11  25
BRANCH  14  28
HETATM   28  N7  LIG X 999      -0.212  -3.514  -1.437  1.00  0.00    -0.070 NA
HETATM   29  N8  LIG X 999      -0.712  -4.545  -1.890  1.00  0.00    -0.162 NA
HETATM   30  N9  LIG X 999      -1.210  -5.575  -2.343  1.00  0.00     0.068 N 
ENDBRANCH  14  28
BRANCH  12  31
HETATM   31  N15 LIG X 999      -4.615   1.326  -0.066  1.00  0.00    -0.069 NA
HETATM   32  N16 LIG X 999      -5.116   1.038  -1.154  1.00  0.00    -0.162 NA
HETATM   33  N17 LIG X 999      -5.616   0.754  -2.241  1.00  0.00     0.068 N 
ENDBRANCH  12  31
BRANCH  23  34
HETATM   34  N11 LIG X 999       4.361   2.534   1.331  1.00  0.00    -0.070 NA
HETATM   35  N12 LIG X 999       3.338   3.188   1.541  1.00  0.00    -0.162 NA
HETATM   36  N13 LIG X 999       2.322   3.848   1.754  1.00  0.00     0.068 N 
ENDBRANCH  23  34
ENDBRANCH   3   4
TORSDOF 5
