REMARK  5 active torsions:
REMARK  status: ('A' for Active; 'I' for Inactive)
REMARK    1  A    between atoms: N3_3  and  C1_4 
REMARK    2  A    between atoms: C6_9  and  N4_10 
REMARK    3  A    between atoms: C8_14  and  N7_15 
REMARK    4  A    between atoms: C15_26  and  N11_27 
REMARK    5  A    between atoms: C18_33  and  N15_34 
ROOT
HETATM    1  N1  LIG X 999      -3.559   1.499  -4.767  1.00  0.00     0.068 N 
HETATM    2  N2  LIG X 999      -2.984   0.430  -4.573  1.00  0.00    -0.162 NA
HETATM    3  N3  LIG X 999      -2.408  -0.642  -4.381  1.00  0.00    -0.070 NA
ENDROOT
BRANCH   3   4
HETATM    4  C1  LIG X 999      -1.481  -0.842  -3.302  1.00  0.00     0.126 A 
HETATM    5  C2  LIG X 999      -1.201   0.227  -2.407  1.00  0.00     0.053 A 
HETATM    6  C3  LIG X 999      -0.300  -0.000  -1.376  1.00  0.00     0.025 A 
HETATM    7  C4  LIG X 999       0.300  -1.204  -1.223  1.00  0.00     0.023 A 
HETATM    8  C17 LIG X 999       0.197   0.785  -0.352  1.00  0.00     0.127 A 
HETATM    9  C5  LIG X 999       0.085  -2.295  -2.049  1.00  0.00     0.043 A 
HETATM   10  C9  LIG X 999       1.139  -1.165  -0.140  1.00  0.00     0.088 A 
HETATM   11  C6  LIG X 999       0.808  -3.476  -1.732  1.00  0.00     0.109 A 
HETATM   12  C18 LIG X 999      -0.836  -2.121  -3.127  1.00  0.00     0.138 A 
HETATM   13  C7  LIG X 999       1.694  -3.472  -0.615  1.00  0.00     0.072 A 
HETATM   14  C8  LIG X 999       1.877  -2.319   0.197  1.00  0.00     0.123 A 
HETATM   15  N10 LIG X 999       1.075   0.086   0.415  1.00  0.00    -0.259 N 
HETATM   16  C10 LIG X 999       1.661   0.658   1.508  1.00  0.00     0.266 A 
HETATM   17  O1  LIG X 999       2.444   0.007   2.246  1.00  0.00    -0.267 OA
HETATM   18  C11 LIG X 999       1.361   2.005   1.810  1.00  0.00     0.062 A 
HETATM   19  C12 LIG X 999       1.901   2.635   2.945  1.00  0.00     0.019 A 
HETATM   20  C16 LIG X 999       0.475   2.726   0.956  1.00  0.00     0.081 A 
HETATM   21  C13 LIG X 999       1.564   3.953   3.246  1.00  0.00     0.004 A 
HETATM   22  C14 LIG X 999       0.716   4.671   2.406  1.00  0.00     0.037 A 
HETATM   23  C15 LIG X 999       0.195   4.090   1.244  1.00  0.00     0.120 A 
HETATM   24  N14 LIG X 999      -0.118   2.079  -0.094  1.00  0.00    -0.338 N 
HETATM   25  H6  LIG X 999      -0.841   2.540  -0.686  1.00  0.00     0.167 HD
BRANCH  11  26
HETATM   26  N4  LIG X 999       0.648  -4.660  -2.530  1.00  0.00    -0.072 NA
HETATM   27  N5  LIG X 999       1.253  -5.707  -2.295  1.00  0.00    -0.162 NA
HETATM   28  N6  LIG X 999       1.857  -6.753  -2.061  1.00  0.00     0.068 N 
ENDBRANCH  11  26
BRANCH  14  29
HETATM   29  N7  LIG X 999       2.788  -2.336   1.302  1.00  0.00    -0.070 NA
HETATM   30  N8  LIG X 999       3.443  -3.334   1.607  1.00  0.00    -0.162 NA
HETATM   31  N9  LIG X 999       4.098  -4.329   1.913  1.00  0.00     0.068 N 
ENDBRANCH  14  29
BRANCH  12  32
HETATM   32  N15 LIG X 999      -1.086  -3.234  -4.007  1.00  0.00    -0.069 NA
HETATM   33  N16 LIG X 999      -1.859  -3.201  -4.966  1.00  0.00    -0.162 NA
HETATM   34  N17 LIG X 999      -2.628  -3.179  -5.925  1.00  0.00     0.068 N 
ENDBRANCH  12  32
BRANCH  23  35
HETATM   35  N11 LIG X 999      -0.597   4.925   0.386  1.00  0.00    -0.070 NA
HETATM   36  N12 LIG X 999      -0.453   4.928  -0.837  1.00  0.00    -0.162 NA
HETATM   37  N13 LIG X 999      -0.310   4.935  -2.059  1.00  0.00     0.068 N 
ENDBRANCH  23  35
ENDBRANCH   3   4
TORSDOF 5
