REMARK  7 active torsions:
REMARK  status: ('A' for Active; 'I' for Inactive)
REMARK    1  A    between atoms: N3_3  and  C1_4 
REMARK    2  A    between atoms: C1_4  and  C2_5 
REMARK    3  A    between atoms: C2_5  and  N4_6 
REMARK    4  A    between atoms: C2_5  and  C7_14 
REMARK    5  A    between atoms: N4_6  and  C3_7 
REMARK    6  A    between atoms: C3_7  and  C4_8 
REMARK    7  A    between atoms: C4_8  and  N5_9 
ROOT
HETATM    1  N1  LIG X 999       1.543  -5.606  -0.353  1.00  0.00     0.068 N 
HETATM    2  N2  LIG X 999       1.350  -4.571  -0.989  1.00  0.00    -0.168 NA
HETATM    3  N3  LIG X 999       1.158  -3.534  -1.626  1.00  0.00    -0.113 NA
ENDROOT
BRANCH   3   4
HETATM    4  C1  LIG X 999       0.005  -2.685  -1.352  1.00  0.00     0.229 C 
BRANCH   4   5
HETATM    5  C2  LIG X 999       0.465  -1.284  -0.901  1.00  0.00     0.275 C 
BRANCH   5   6
HETATM    6  N4  LIG X 999       1.245  -0.589  -1.949  1.00  0.00     0.095 N 
HETATM    7  H4  LIG X 999       0.960  -0.919  -2.901  1.00  0.00     0.316 HD
BRANCH   6   8
HETATM    8  C3  LIG X 999       2.703  -0.739  -1.796  1.00  0.00     0.290 C 
BRANCH   8   9
HETATM    9  C4  LIG X 999       3.314   0.556  -1.257  1.00  0.00     0.160 C 
BRANCH   9  10
HETATM   10  N5  LIG X 999       2.781   0.882   0.063  1.00  0.00    -0.334 N 
HETATM   11  C5  LIG X 999       1.825   1.781   0.370  1.00  0.00     0.232 A 
HETATM   12  N6  LIG X 999       1.562   1.777   1.692  1.00  0.00    -0.169 NA
HETATM   13  N7  LIG X 999       2.357   0.862   2.225  1.00  0.00    -0.273 N 
HETATM   14  C6  LIG X 999       3.094   0.317   1.242  1.00  0.00     0.203 A 
HETATM   15  H10 LIG X 999       2.386   0.614   3.238  1.00  0.00     0.190 HD
ENDBRANCH   9  10
ENDBRANCH   8   9
ENDBRANCH   6   8
ENDBRANCH   5   6
BRANCH   5  16
HETATM   16  C7  LIG X 999      -0.738  -0.441  -0.531  1.00  0.00    -0.023 A 
HETATM   17  C8  LIG X 999      -1.590   0.070  -1.527  1.00  0.00     0.010 A 
HETATM   18  C9  LIG X 999      -2.698   0.849  -1.185  1.00  0.00     0.013 A 
HETATM   19  C10 LIG X 999      -2.978   1.125   0.159  1.00  0.00    -0.026 A 
HETATM   20  C11 LIG X 999      -4.085   1.912   0.513  1.00  0.00     0.012 A 
HETATM   21  C15 LIG X 999      -2.137   0.604   1.171  1.00  0.00    -0.025 A 
HETATM   22  C12 LIG X 999      -4.354   2.181   1.858  1.00  0.00     0.001 A 
HETATM   23  C13 LIG X 999      -3.523   1.667   2.857  1.00  0.00     0.001 A 
HETATM   24  C14 LIG X 999      -2.418   0.881   2.518  1.00  0.00     0.012 A 
HETATM   25  C16 LIG X 999      -1.030  -0.182   0.819  1.00  0.00     0.021 A 
ENDBRANCH   5  16
ENDBRANCH   4   5
ENDBRANCH   3   4
TORSDOF 7
