REMARK  5 active torsions:
REMARK  status: ('A' for Active; 'I' for Inactive)
REMARK    1  A    between atoms: C3_3  and  S1_4 
REMARK    2  A    between atoms: S1_4  and  C4_7 
REMARK    3  A    between atoms: C6_9  and  N1_10 
REMARK       I    between atoms: N1_10  and  C7_11 
REMARK    4  A    between atoms: C7_11  and  C8_13 
REMARK    5  A    between atoms: C18_23  and  N2_24 
ROOT
HETATM    1  C1  LIG X 999       3.803  -2.398   3.245  1.00  0.00     0.013 C 
HETATM    2  C2  LIG X 999       3.929  -1.250   2.901  1.00  0.00    -0.102 C 
HETATM    3  C3  LIG X 999       4.078   0.146   2.481  1.00  0.00     0.238 C 
ENDROOT
BRANCH   3   4
HETATM    4  S1  LIG X 999       2.621   1.075   2.916  1.00  0.00     0.185 S 
HETATM    5  O1  LIG X 999       2.794   2.503   2.482  1.00  0.00    -0.222 OA
HETATM    6  O2  LIG X 999       2.429   1.049   4.407  1.00  0.00    -0.222 OA
BRANCH   4   7
HETATM    7  C4  LIG X 999       1.211   0.381   2.119  1.00  0.00     0.063 A 
HETATM    8  C5  LIG X 999       0.864   0.794   0.832  1.00  0.00     0.054 A 
HETATM    9  C6  LIG X 999      -0.240   0.238   0.169  1.00  0.00     0.047 A 
HETATM   10  C14 LIG X 999      -1.009  -0.763   0.814  1.00  0.00     0.003 A 
HETATM   11  C15 LIG X 999      -2.146  -1.322   0.199  1.00  0.00     0.014 A 
HETATM   12  C20 LIG X 999      -0.645  -1.200   2.119  1.00  0.00     0.007 A 
HETATM   13  C16 LIG X 999      -2.888  -2.310   0.842  1.00  0.00     0.003 A 
HETATM   14  C17 LIG X 999      -2.520  -2.755   2.109  1.00  0.00     0.032 A 
HETATM   15  C18 LIG X 999      -1.401  -2.207   2.765  1.00  0.00     0.069 A 
HETATM   16  C21 LIG X 999       0.467  -0.617   2.754  1.00  0.00     0.038 A 
BRANCH   9  17
HETATM   17  N1  LIG X 999      -0.530   0.652  -1.178  1.00  0.00    -0.322 N 
HETATM   18  C7  LIG X 999      -0.552   2.034  -1.574  1.00  0.00     0.256 C 
HETATM   19  O3  LIG X 999      -0.634   2.933  -0.693  1.00  0.00    -0.267 OA
HETATM   20  H5  LIG X 999      -0.772  -0.078  -1.883  1.00  0.00     0.169 HD
BRANCH  18  21
HETATM   21  C8  LIG X 999      -0.517   2.420  -3.006  1.00  0.00     0.032 A 
HETATM   22  C9  LIG X 999      -0.999   3.679  -3.409  1.00  0.00     0.017 A 
HETATM   23  C10 LIG X 999      -0.965   4.053  -4.756  1.00  0.00     0.001 A 
HETATM   24  C11 LIG X 999      -0.443   3.180  -5.713  1.00  0.00     0.000 A 
HETATM   25  C12 LIG X 999       0.049   1.933  -5.324  1.00  0.00     0.001 A 
HETATM   26  C13 LIG X 999       0.016   1.552  -3.978  1.00  0.00     0.017 A 
ENDBRANCH  18  21
ENDBRANCH   9  17
BRANCH  15  27
HETATM   27  N2  LIG X 999      -1.018  -2.655   4.080  1.00  0.00    -0.233 NA
HETATM   28  C19 LIG X 999      -1.633  -3.555   4.739  1.00  0.00     0.163 C 
HETATM   29  S2  LIG X 999      -2.409  -4.695   5.572  1.00  0.00    -0.055 SA
ENDBRANCH  15  27
ENDBRANCH   4   7
ENDBRANCH   3   4
TORSDOF 5
