REMARK  6 active torsions:
REMARK  status: ('A' for Active; 'I' for Inactive)
REMARK    1  A    between atoms: C6_6  and  N1_7 
REMARK    2  A    between atoms: N1_7  and  C7_8 
REMARK    3  A    between atoms: C7_8  and  C8_9 
REMARK    4  A    between atoms: C9_10  and  C10_11 
REMARK    5  A    between atoms: C9_10  and  C11_15 
REMARK    6  A    between atoms: C10_11  and  N2_12 
ROOT
HETATM    1  N2  LIG X 999       0.623   1.373   2.967  1.00  0.00    -0.111 NA
HETATM    2  N3  LIG X 999       0.962   2.148   3.861  1.00  0.00    -0.167 NA
HETATM    3  N4  LIG X 999       1.300   2.923   4.755  1.00  0.00     0.068 N 
ENDROOT
BRANCH   1   4
HETATM    4  C10 LIG X 999       0.433  -0.042   3.244  1.00  0.00     0.228 C 
BRANCH   4   5
HETATM    5  C9  LIG X 999       0.038  -0.764   1.974  1.00  0.00    -0.028 C 
HETATM    6  C8  LIG X 999       0.936  -1.076   1.014  1.00  0.00     0.012 C 
BRANCH   6   7
HETATM    7  C7  LIG X 999       2.412  -0.786   1.091  1.00  0.00     0.298 C 
BRANCH   7   8
HETATM    8  N1  LIG X 999       2.712   0.651   0.945  1.00  0.00     0.091 N 
HETATM    9  H12 LIG X 999       3.728   0.773   1.167  1.00  0.00     0.316 HD
BRANCH   8  10
HETATM   10  C6  LIG X 999       2.461   1.259  -0.387  1.00  0.00     0.221 C 
HETATM   11  C5  LIG X 999       2.796   0.344  -1.588  1.00  0.00     0.035 C 
HETATM   12  C4  LIG X 999       2.661   1.102  -2.922  1.00  0.00     0.002 C 
HETATM   13  C3  LIG X 999       1.470   2.087  -2.958  1.00  0.00     0.004 C 
HETATM   14  C2  LIG X 999       0.413   1.765  -1.886  1.00  0.00    -0.017 C 
HETATM   15  C1  LIG X 999      -0.799   2.693  -2.012  1.00  0.00     0.010 C 
HETATM   16  C21 LIG X 999       1.032   1.858  -0.472  1.00  0.00     0.039 C 
ENDBRANCH   8  10
ENDBRANCH   7   8
ENDBRANCH   6   7
BRANCH   5  17
HETATM   17  C11 LIG X 999      -1.398  -1.070   1.742  1.00  0.00    -0.028 A 
HETATM   18  C12 LIG X 999      -2.148  -1.740   2.724  1.00  0.00     0.013 A 
HETATM   19  C13 LIG X 999      -3.501  -2.022   2.516  1.00  0.00     0.013 A 
HETATM   20  C14 LIG X 999      -4.127  -1.639   1.321  1.00  0.00    -0.026 A 
HETATM   21  C15 LIG X 999      -5.486  -1.915   1.104  1.00  0.00     0.012 A 
HETATM   22  C19 LIG X 999      -3.380  -0.968   0.324  1.00  0.00    -0.025 A 
HETATM   23  C16 LIG X 999      -6.098  -1.526  -0.092  1.00  0.00     0.001 A 
HETATM   24  C17 LIG X 999      -5.360  -0.863  -1.076  1.00  0.00     0.001 A 
HETATM   25  C18 LIG X 999      -4.006  -0.583  -0.872  1.00  0.00     0.012 A 
HETATM   26  C20 LIG X 999      -2.022  -0.693   0.540  1.00  0.00     0.024 A 
ENDBRANCH   5  17
ENDBRANCH   4   5
ENDBRANCH   1   4
TORSDOF 6
