REMARK  5 active torsions:
REMARK  status: ('A' for Active; 'I' for Inactive)
REMARK    1  A    between atoms: C3_3  and  S1_4 
REMARK    2  A    between atoms: S1_4  and  C4_7 
REMARK    3  A    between atoms: C8_11  and  N1_12 
REMARK       I    between atoms: N1_12  and  C9_13 
REMARK    4  A    between atoms: C9_13  and  C10_15 
REMARK    5  A    between atoms: C20_25  and  N2_26 
ROOT
HETATM    1  C1  LIG X 999      -3.728   3.291   2.004  1.00  0.00     0.013 C 
HETATM    2  C2  LIG X 999      -3.803   2.275   2.648  1.00  0.00    -0.102 C 
HETATM    3  C3  LIG X 999      -3.892   1.038   3.429  1.00  0.00     0.238 C 
ENDROOT
BRANCH   3   4
HETATM    4  S1  LIG X 999      -4.071  -0.368   2.341  1.00  0.00     0.188 S 
HETATM    5  O1  LIG X 999      -5.402  -0.232   1.654  1.00  0.00    -0.222 OA
HETATM    6  O2  LIG X 999      -4.063  -1.622   3.168  1.00  0.00    -0.222 OA
BRANCH   4   7
HETATM    7  C4  LIG X 999      -2.771  -0.459   1.132  1.00  0.00     0.089 A 
HETATM    8  C5  LIG X 999      -1.532   0.119   1.433  1.00  0.00     0.027 A 
HETATM    9  C6  LIG X 999      -0.507   0.150   0.492  1.00  0.00     0.016 A 
HETATM   10  C7  LIG X 999      -0.685  -0.411  -0.783  1.00  0.00     0.003 A 
HETATM   11  C8  LIG X 999       0.347  -0.378  -1.754  1.00  0.00     0.046 A 
HETATM   12  C19 LIG X 999      -1.938  -1.000  -1.107  1.00  0.00     0.007 A 
HETATM   13  C16 LIG X 999       0.103  -0.871  -3.041  1.00  0.00     0.030 A 
HETATM   14  C17 LIG X 999      -1.126  -1.442  -3.360  1.00  0.00     0.003 A 
HETATM   15  C18 LIG X 999      -2.135  -1.519  -2.402  1.00  0.00     0.015 A 
HETATM   16  C20 LIG X 999      -2.966  -1.063  -0.135  1.00  0.00     0.091 A 
BRANCH  11  17
HETATM   17  N1  LIG X 999       1.647   0.158  -1.464  1.00  0.00    -0.322 N 
HETATM   18  C9  LIG X 999       2.513  -0.438  -0.483  1.00  0.00     0.256 C 
HETATM   19  O3  LIG X 999       2.199  -1.547   0.032  1.00  0.00    -0.267 OA
HETATM   20  H6  LIG X 999       2.061   0.822  -2.155  1.00  0.00     0.169 HD
BRANCH  18  21
HETATM   21  C10 LIG X 999       3.777   0.223  -0.079  1.00  0.00     0.032 A 
HETATM   22  C11 LIG X 999       4.801  -0.525   0.533  1.00  0.00     0.017 A 
HETATM   23  C12 LIG X 999       5.993   0.093   0.924  1.00  0.00     0.001 A 
HETATM   24  C13 LIG X 999       6.174   1.462   0.715  1.00  0.00     0.000 A 
HETATM   25  C14 LIG X 999       5.162   2.216   0.118  1.00  0.00     0.001 A 
HETATM   26  C15 LIG X 999       3.968   1.604  -0.276  1.00  0.00     0.017 A 
ENDBRANCH  18  21
ENDBRANCH  11  17
BRANCH  16  27
HETATM   27  N2  LIG X 999      -4.197  -1.724  -0.462  1.00  0.00    -0.232 NA
HETATM   28  C21 LIG X 999      -4.602  -2.749   0.174  1.00  0.00     0.163 C 
HETATM   29  S2  LIG X 999      -5.114  -4.049   0.976  1.00  0.00    -0.055 SA
ENDBRANCH  16  27
ENDBRANCH   4   7
ENDBRANCH   3   4
TORSDOF 5
