REMARK  2 active torsions:
REMARK  status: ('A' for Active; 'I' for Inactive)
REMARK       I    between atoms: C2_2  and  N1_4 
REMARK    1  A    between atoms: N1_4  and  C3_5 
REMARK    2  A    between atoms: C8_10  and  N2_11 
ROOT
HETATM    1  N2  LIG X 999      -3.790  -0.094   1.224  1.00  0.00    -0.233 NA
HETATM    2  C9  LIG X 999      -4.215   1.078   0.964  1.00  0.00     0.163 C 
HETATM    3  S1  LIG X 999      -4.752   2.561   0.634  1.00  0.00    -0.055 SA
ENDROOT
BRANCH   1   4
HETATM    4  C8  LIG X 999      -2.560  -0.604   0.691  1.00  0.00     0.069 A 
HETATM    5  C7  LIG X 999      -1.315   0.068   0.837  1.00  0.00     0.005 A 
HETATM    6  C6  LIG X 999      -1.186   1.231   1.622  1.00  0.00     0.015 A 
HETATM    7  C13 LIG X 999      -0.153  -0.468   0.210  1.00  0.00     0.005 A 
HETATM    8  C5  LIG X 999       0.045   1.871   1.748  1.00  0.00     0.003 A 
HETATM    9  C4  LIG X 999       1.171   1.368   1.102  1.00  0.00     0.032 A 
HETATM   10  C3  LIG X 999       1.084   0.209   0.316  1.00  0.00     0.071 A 
HETATM   11  C12 LIG X 999      -0.252  -1.675  -0.508  1.00  0.00     0.015 A 
HETATM   12  C11 LIG X 999      -1.468  -2.351  -0.592  1.00  0.00     0.003 A 
HETATM   13  C10 LIG X 999      -2.609  -1.823   0.006  1.00  0.00     0.032 A 
BRANCH  10  14
HETATM   14  N1  LIG X 999       2.260  -0.336  -0.306  1.00  0.00    -0.214 NA
HETATM   15  C2  LIG X 999       3.351   0.406  -0.868  1.00  0.00     0.239 C 
HETATM   16  C1  LIG X 999       3.201   1.830  -1.309  1.00  0.00     0.119 C 
HETATM   17  O1  LIG X 999       4.460  -0.169  -1.027  1.00  0.00    -0.272 OA
ENDBRANCH  10  14
ENDBRANCH   1   4
TORSDOF 2
