REMARK  5 active torsions:
REMARK  status: ('A' for Active; 'I' for Inactive)
REMARK    1  A    between atoms: N1_1  and  C1_2 
REMARK    2  A    between atoms: C3_4  and  S1_5 
REMARK    3  A    between atoms: S1_5  and  C4_8 
REMARK    4  A    between atoms: C4_8  and  C5_9 
REMARK    5  A    between atoms: C15_21  and  N2_22 
ROOT
HETATM    1  N2  LIG X 999       2.350  -3.174  -2.247  1.00  0.00    -0.233 NA
HETATM    2  C16 LIG X 999       3.146  -2.822  -1.318  1.00  0.00     0.163 C 
HETATM    3  S3  LIG X 999       4.150  -2.372  -0.140  1.00  0.00    -0.055 SA
ENDROOT
BRANCH   1   4
HETATM    4  C15 LIG X 999       1.354  -2.291  -2.786  1.00  0.00     0.069 A 
HETATM    5  C14 LIG X 999       0.428  -1.578  -1.974  1.00  0.00     0.007 A 
HETATM    6  C13 LIG X 999       0.321  -1.826  -0.593  1.00  0.00     0.038 A 
HETATM    7  C20 LIG X 999      -0.440  -0.618  -2.575  1.00  0.00     0.003 A 
HETATM    8  C3  LIG X 999      -0.566  -1.099   0.200  1.00  0.00     0.062 A 
HETATM    9  C2  LIG X 999      -1.363  -0.109  -0.377  1.00  0.00     0.053 A 
HETATM   10  C1  LIG X 999      -1.312   0.147  -1.753  1.00  0.00     0.038 A 
HETATM   11  C19 LIG X 999      -0.429  -0.476  -3.978  1.00  0.00     0.014 A 
HETATM   12  C18 LIG X 999       0.432  -1.238  -4.764  1.00  0.00     0.003 A 
HETATM   13  C17 LIG X 999       1.317  -2.134  -4.174  1.00  0.00     0.032 A 
BRANCH   8  14
HETATM   14  S1  LIG X 999      -0.573  -1.340   1.947  1.00  0.00     0.180 S 
HETATM   15  O1  LIG X 999      -0.530  -2.811   2.252  1.00  0.00    -0.222 OA
HETATM   16  O2  LIG X 999      -1.828  -0.762   2.540  1.00  0.00    -0.222 OA
BRANCH  14  17
HETATM   17  C4  LIG X 999       0.849  -0.534   2.669  1.00  0.00     0.192 C 
BRANCH  17  18
HETATM   18  C5  LIG X 999       1.094   0.778   1.996  1.00  0.00    -0.002 A 
HETATM   19  C6  LIG X 999       0.321   1.927   2.164  1.00  0.00     0.028 A 
HETATM   20  C7  LIG X 999       0.685   2.946   1.279  1.00  0.00    -0.016 A 
HETATM   21  C8  LIG X 999       0.090   4.206   1.184  1.00  0.00     0.036 A 
HETATM   22  C12 LIG X 999       1.723   2.597   0.427  1.00  0.00     0.015 A 
HETATM   23  C9  LIG X 999       0.567   5.109   0.216  1.00  0.00     0.035 A 
HETATM   24 CL1  LIG X 999      -0.161   6.698   0.074  1.00  0.00    -0.084 Cl
HETATM   25  C10 LIG X 999       1.623   4.741  -0.642  1.00  0.00     0.025 A 
HETATM   26  C11 LIG X 999       2.210   3.470  -0.541  1.00  0.00     0.021 A 
HETATM   27  S2  LIG X 999       2.208   1.022   0.744  1.00  0.00    -0.093 SA
ENDBRANCH  17  18
ENDBRANCH  14  17
ENDBRANCH   8  14
BRANCH  10  28
HETATM   28  N1  LIG X 999      -2.128   1.207  -2.273  1.00  0.00    -0.398 N 
HETATM   29  H1  LIG X 999      -2.852   1.657  -1.669  1.00  0.00     0.156 HD
HETATM   30  H2  LIG X 999      -1.951   1.657  -3.196  1.00  0.00     0.156 HD
ENDBRANCH  10  28
ENDBRANCH   1   4
TORSDOF 5
