REMARK  2 active torsions:
REMARK  status: ('A' for Active; 'I' for Inactive)
REMARK    1  A    between atoms: C2_3  and  C3_5 
REMARK    2  A    between atoms: C4_6  and  C5_7 
ROOT
HETATM    1  N1  LIG X 999       3.440  -2.208   7.262  1.00  0.00    -0.187 NA
HETATM    2  C1  LIG X 999       3.176  -1.241   6.684  1.00  0.00     0.152 C 
HETATM    3  C2  LIG X 999       2.848  -0.041   5.967  1.00  0.00     0.305 C 
HETATM    4  O1  LIG X 999       3.041   1.082   6.500  1.00  0.00    -0.266 OA
ENDROOT
BRANCH   3   5
HETATM    5  C3  LIG X 999       2.299  -0.123   4.644  1.00  0.00    -0.007 C 
HETATM    6  C4  LIG X 999       1.838  -0.192   3.532  1.00  0.00    -0.058 C 
BRANCH   6   7
HETATM    7  C5  LIG X 999       1.288  -0.275   2.204  1.00  0.00     0.019 A 
HETATM    8  C6  LIG X 999       0.961  -1.524   1.660  1.00  0.00     0.021 A 
HETATM    9  C7  LIG X 999       0.427  -1.612   0.371  1.00  0.00     0.013 A 
HETATM   10  C8  LIG X 999       0.214  -0.450  -0.385  1.00  0.00    -0.026 A 
HETATM   11  C9  LIG X 999      -0.322  -0.527  -1.680  1.00  0.00     0.012 A 
HETATM   12  C13 LIG X 999       0.543   0.814   0.163  1.00  0.00    -0.025 A 
HETATM   13  C10 LIG X 999      -0.529   0.638  -2.424  1.00  0.00     0.001 A 
HETATM   14  C11 LIG X 999      -0.205   1.885  -1.883  1.00  0.00     0.001 A 
HETATM   15  C12 LIG X 999       0.329   1.976  -0.594  1.00  0.00     0.012 A 
HETATM   16  C14 LIG X 999       1.079   0.892   1.458  1.00  0.00     0.032 A 
ENDBRANCH   6   7
ENDBRANCH   3   5
TORSDOF 2
