REMARK  6 active torsions:
REMARK  status: ('A' for Active; 'I' for Inactive)
REMARK    1  A    between atoms: C1_1  and  C16_17 
REMARK    2  A    between atoms: C2_2  and  C4_5 
REMARK    3  A    between atoms: C5_6  and  C6_7 
REMARK    4  A    between atoms: C16_17  and  O1_18 
REMARK    5  A    between atoms: C16_17  and  C20_23 
REMARK    6  A    between atoms: O1_18  and  C17_19 
ROOT
HETATM    1  C1  LIG X 999      -3.050  -2.120  -0.778  1.00  0.00     0.039 C 
HETATM    2  C2  LIG X 999      -1.837  -2.405  -1.278  1.00  0.00     0.097 C 
HETATM    3  C3  LIG X 999      -1.694  -3.464  -2.242  1.00  0.00     0.108 C 
HETATM    4  N1  LIG X 999      -1.579  -4.315  -3.017  1.00  0.00    -0.191 NA
ENDROOT
BRANCH   2   5
HETATM    5  C4  LIG X 999      -0.657  -1.667  -0.904  1.00  0.00    -0.050 C 
HETATM    6  C5  LIG X 999       0.318  -1.032  -0.588  1.00  0.00    -0.061 C 
BRANCH   6   7
HETATM    7  C6  LIG X 999       1.469  -0.258  -0.209  1.00  0.00     0.018 A 
HETATM    8  C7  LIG X 999       1.555   1.091  -0.577  1.00  0.00     0.021 A 
HETATM    9  C8  LIG X 999       2.665   1.853  -0.204  1.00  0.00     0.013 A 
HETATM   10  C9  LIG X 999       3.701   1.272   0.543  1.00  0.00    -0.026 A 
HETATM   11  C10 LIG X 999       4.820   2.029   0.925  1.00  0.00     0.012 A 
HETATM   12  C14 LIG X 999       3.617  -0.092   0.916  1.00  0.00    -0.025 A 
HETATM   13  C11 LIG X 999       5.845   1.439   1.671  1.00  0.00     0.001 A 
HETATM   14  C12 LIG X 999       5.762   0.093   2.039  1.00  0.00     0.001 A 
HETATM   15  C13 LIG X 999       4.654  -0.672   1.665  1.00  0.00     0.012 A 
HETATM   16  C15 LIG X 999       2.498  -0.849   0.536  1.00  0.00     0.032 A 
ENDBRANCH   6   7
ENDBRANCH   2   5
BRANCH   1  17
HETATM   17  C16 LIG X 999      -3.322  -1.013   0.219  1.00  0.00     0.175 C 
BRANCH  17  18
HETATM   18  O1  LIG X 999      -4.037   0.034  -0.412  1.00  0.00    -0.370 OA
BRANCH  18  19
HETATM   19  C17 LIG X 999      -3.139   0.948  -1.011  1.00  0.00     0.170 A 
HETATM   20  C18 LIG X 999      -3.874   2.086  -1.676  1.00  0.00     0.201 A 
HETATM   21  O2  LIG X 999      -3.398   3.030  -0.747  1.00  0.00    -0.386 OA
HETATM   22  C19 LIG X 999      -2.680   2.031  -0.062  1.00  0.00     0.201 A 
ENDBRANCH  18  19
ENDBRANCH  17  18
BRANCH  17  23
HETATM   23  C20 LIG X 999      -4.179  -1.558   1.362  1.00  0.00     0.258 C 
HETATM   24  F1  LIG X 999      -3.504  -2.564   2.032  1.00  0.00    -0.253 F 
ENDBRANCH  17  23
ENDBRANCH   1  17
TORSDOF 6
