REMARK  2 active torsions:
REMARK  status: ('A' for Active; 'I' for Inactive)
REMARK    1  A    between atoms: C3_3  and  S1_4 
REMARK    2  A    between atoms: S1_4  and  C4_7 
ROOT
HETATM    1  C1  LIG X 999       0.388  -2.317  -2.584  1.00  0.00     0.013 C 
HETATM    2  C2  LIG X 999      -0.678  -1.758  -2.520  1.00  0.00    -0.102 C 
HETATM    3  C3  LIG X 999      -1.972  -1.076  -2.440  1.00  0.00     0.238 C 
ENDROOT
BRANCH   3   4
HETATM    4  S1  LIG X 999      -2.290  -0.563  -0.763  1.00  0.00     0.185 S 
HETATM    5  O1  LIG X 999      -3.623   0.130  -0.699  1.00  0.00    -0.222 OA
HETATM    6  O2  LIG X 999      -2.334  -1.767   0.136  1.00  0.00    -0.222 OA
BRANCH   4   7
HETATM    7  C4  LIG X 999      -1.026   0.540  -0.226  1.00  0.00     0.060 A 
HETATM    8  C5  LIG X 999      -1.133   1.911  -0.492  1.00  0.00     0.024 A 
HETATM    9  C6  LIG X 999      -0.126   2.791  -0.087  1.00  0.00     0.014 A 
HETATM   10  C7  LIG X 999       1.006   2.306   0.584  1.00  0.00    -0.026 A 
HETATM   11  C8  LIG X 999       2.026   3.180   0.993  1.00  0.00     0.012 A 
HETATM   12  C12 LIG X 999       1.123   0.920   0.848  1.00  0.00    -0.025 A 
HETATM   13  C9  LIG X 999       3.151   2.683   1.657  1.00  0.00     0.001 A 
HETATM   14  C10 LIG X 999       3.267   1.315   1.917  1.00  0.00     0.001 A 
HETATM   15  C11 LIG X 999       2.259   0.434   1.514  1.00  0.00     0.012 A 
HETATM   16  C13 LIG X 999       0.105   0.046   0.439  1.00  0.00     0.035 A 
ENDBRANCH   4   7
ENDBRANCH   3   4
TORSDOF 2
