REMARK  4 active torsions:
REMARK  status: ('A' for Active; 'I' for Inactive)
REMARK    1  A    between atoms: N1_1  and  C1_2 
REMARK    2  A    between atoms: C5_7  and  C6_8 
REMARK    3  A    between atoms: C6_8  and  S2_9 
REMARK    4  A    between atoms: S2_9  and  C7_12 
ROOT
HETATM    1  C6  LIG X 999      -1.335   0.157   0.735  1.00  0.00     0.192 C 
ENDROOT
BRANCH   1   2
HETATM    2  C5  LIG X 999      -1.037   1.613   0.890  1.00  0.00    -0.002 A 
HETATM    3  S1  LIG X 999      -0.958   2.725  -0.384  1.00  0.00    -0.093 SA
HETATM    4  C4  LIG X 999      -0.511   4.019   0.587  1.00  0.00     0.015 A 
HETATM    5  C3  LIG X 999      -0.256   5.333   0.208  1.00  0.00     0.022 A 
HETATM    6  C18 LIG X 999      -0.407   3.601   1.905  1.00  0.00    -0.016 A 
HETATM    7  C2  LIG X 999       0.115   6.251   1.202  1.00  0.00     0.030 A 
HETATM    8  C1  LIG X 999       0.227   5.843   2.550  1.00  0.00     0.026 A 
HETATM    9  C19 LIG X 999      -0.036   4.504   2.904  1.00  0.00     0.041 A 
HETATM   10  C17 LIG X 999      -0.696   2.244   2.086  1.00  0.00     0.028 A 
BRANCH   8  11
HETATM   11  N1  LIG X 999       0.607   6.787   3.555  1.00  0.00    -0.399 N 
HETATM   12  H1  LIG X 999       0.694   6.497   4.555  1.00  0.00     0.156 HD
HETATM   13  H2  LIG X 999       0.805   7.782   3.306  1.00  0.00     0.156 HD
ENDBRANCH   8  11
ENDBRANCH   1   2
BRANCH   1  14
HETATM   14  S2  LIG X 999       0.174  -0.762   0.496  1.00  0.00     0.180 S 
HETATM   15  O1  LIG X 999       0.885  -0.268  -0.733  1.00  0.00    -0.222 OA
HETATM   16  O2  LIG X 999       1.077  -0.577   1.683  1.00  0.00    -0.222 OA
BRANCH  14  17
HETATM   17  C7  LIG X 999      -0.217  -2.468   0.307  1.00  0.00     0.060 A 
HETATM   18  C8  LIG X 999      -0.249  -3.310   1.426  1.00  0.00     0.024 A 
HETATM   19  C9  LIG X 999      -0.575  -4.662   1.284  1.00  0.00     0.014 A 
HETATM   20  C10 LIG X 999      -0.878  -5.185   0.019  1.00  0.00    -0.026 A 
HETATM   21  C11 LIG X 999      -1.207  -6.541  -0.136  1.00  0.00     0.012 A 
HETATM   22  C15 LIG X 999      -0.855  -4.336  -1.114  1.00  0.00    -0.025 A 
HETATM   23  C12 LIG X 999      -1.510  -7.049  -1.402  1.00  0.00     0.001 A 
HETATM   24  C13 LIG X 999      -1.488  -6.211  -2.520  1.00  0.00     0.001 A 
HETATM   25  C14 LIG X 999      -1.163  -4.859  -2.380  1.00  0.00     0.012 A 
HETATM   26  C16 LIG X 999      -0.527  -2.980  -0.960  1.00  0.00     0.035 A 
ENDBRANCH  14  17
ENDBRANCH   1  14
TORSDOF 4
