REMARK  5 active torsions:
REMARK  status: ('A' for Active; 'I' for Inactive)
REMARK    1  A    between atoms: N3_3  and  C1_4 
REMARK    2  A    between atoms: C6_9  and  N4_10 
REMARK    3  A    between atoms: C8_14  and  N7_15 
REMARK    4  A    between atoms: C15_26  and  N11_27 
REMARK    5  A    between atoms: C18_33  and  N15_34 
ROOT
HETATM    1  N1  LIG X 999       2.189   5.087   2.073  1.00  0.00     0.068 N 
HETATM    2  N2  LIG X 999       2.753   4.080   1.649  1.00  0.00    -0.162 NA
HETATM    3  N3  LIG X 999       3.319   3.071   1.225  1.00  0.00    -0.070 NA
ENDROOT
BRANCH   3   4
HETATM    4  C1  LIG X 999       2.598   1.907   0.792  1.00  0.00     0.121 A 
HETATM    5  C2  LIG X 999       1.178   1.894   0.806  1.00  0.00     0.053 A 
HETATM    6  C3  LIG X 999       0.535   0.766   0.316  1.00  0.00     0.026 A 
HETATM    7  C4  LIG X 999       1.235  -0.310  -0.116  1.00  0.00     0.023 A 
HETATM    8  C17 LIG X 999      -0.788   0.432   0.131  1.00  0.00     0.149 A 
HETATM    9  C5  LIG X 999       2.619  -0.399  -0.111  1.00  0.00     0.038 A 
HETATM   10  C9  LIG X 999       0.367  -1.275  -0.559  1.00  0.00     0.088 A 
HETATM   11  C6  LIG X 999       3.162  -1.649  -0.527  1.00  0.00     0.109 A 
HETATM   12  C18 LIG X 999       3.327   0.777   0.295  1.00  0.00     0.071 A 
HETATM   13  C7  LIG X 999       2.297  -2.649  -1.044  1.00  0.00     0.072 A 
HETATM   14  C8  LIG X 999       0.885  -2.481  -1.073  1.00  0.00     0.123 A 
HETATM   15  N10 LIG X 999      -0.913  -0.811  -0.405  1.00  0.00    -0.258 N 
HETATM   16  C10 LIG X 999      -2.146  -1.340  -0.665  1.00  0.00     0.266 A 
HETATM   17  O1  LIG X 999      -2.273  -2.495  -1.149  1.00  0.00    -0.267 OA
HETATM   18  C11 LIG X 999      -3.291  -0.563  -0.376  1.00  0.00     0.064 A 
HETATM   19  C12 LIG X 999      -4.588  -1.045  -0.622  1.00  0.00     0.020 A 
HETATM   20  C16 LIG X 999      -3.119   0.738   0.179  1.00  0.00     0.106 A 
HETATM   21  C13 LIG X 999      -5.698  -0.256  -0.326  1.00  0.00     0.004 A 
HETATM   22  C14 LIG X 999      -5.533   1.019   0.216  1.00  0.00     0.037 A 
HETATM   23  C15 LIG X 999      -4.256   1.532   0.476  1.00  0.00     0.122 A 
HETATM   24  N14 LIG X 999      -1.862   1.203   0.420  1.00  0.00    -0.226 NA
BRANCH  11  25
HETATM   25  N4  LIG X 999       4.535  -2.005  -0.338  1.00  0.00    -0.072 NA
HETATM   26  N5  LIG X 999       5.099  -1.832   0.744  1.00  0.00    -0.162 NA
HETATM   27  N6  LIG X 999       5.662  -1.663   1.824  1.00  0.00     0.068 N 
ENDBRANCH  11  25
BRANCH  14  28
HETATM   28  N7  LIG X 999       0.033  -3.510  -1.590  1.00  0.00    -0.070 NA
HETATM   29  N8  LIG X 999       0.472  -4.568  -2.044  1.00  0.00    -0.162 NA
HETATM   30  N9  LIG X 999       0.908  -5.625  -2.498  1.00  0.00     0.068 N 
ENDBRANCH  14  28
BRANCH  12  31
HETATM   31  N15 LIG X 999       4.741   0.900   0.090  1.00  0.00    -0.396 N 
HETATM   32  H6  LIG X 999       5.298   1.632   0.585  1.00  0.00     0.156 HD
HETATM   33  H7  LIG X 999       5.218   0.386  -0.682  1.00  0.00     0.156 HD
ENDBRANCH  12  31
BRANCH  23  34
HETATM   34  N11 LIG X 999      -4.177   2.855   1.036  1.00  0.00    -0.070 NA
HETATM   35  N12 LIG X 999      -3.118   3.422   1.308  1.00  0.00    -0.162 NA
HETATM   36  N13 LIG X 999      -2.064   3.996   1.581  1.00  0.00     0.068 N 
ENDBRANCH  23  34
ENDBRANCH   3   4
TORSDOF 5
