REMARK  4 active torsions:
REMARK  status: ('A' for Active; 'I' for Inactive)
REMARK    1  A    between atoms: C2_2  and  O1_4 
REMARK    2  A    between atoms: C2_2  and  C4_5 
REMARK    3  A    between atoms: C5_6  and  C6_7 
REMARK    4  A    between atoms: C8_9  and  N1_10 
ROOT
HETATM    1  N1  LIG X 999      -2.837   3.113   0.930  1.00  0.00    -0.070 NA
HETATM    2  N2  LIG X 999      -4.030   3.381   0.787  1.00  0.00    -0.162 NA
HETATM    3  N3  LIG X 999      -5.222   3.653   0.646  1.00  0.00     0.068 N 
ENDROOT
BRANCH   1   4
HETATM    4  C8  LIG X 999      -2.259   1.882   0.475  1.00  0.00     0.124 A 
HETATM    5  C7  LIG X 999      -0.878   1.647   0.680  1.00  0.00     0.058 A 
HETATM    6  C6  LIG X 999      -0.261   0.441   0.248  1.00  0.00     0.031 A 
HETATM    7  C15 LIG X 999      -1.039  -0.546  -0.401  1.00  0.00    -0.004 A 
HETATM    8  C10 LIG X 999      -2.385  -0.270  -0.578  1.00  0.00     0.023 A 
HETATM    9  C14 LIG X 999      -0.573  -1.791  -0.885  1.00  0.00     0.014 A 
HETATM   10  C9  LIG X 999      -3.002   0.879  -0.172  1.00  0.00     0.104 A 
HETATM   11  C11 LIG X 999      -3.260  -1.115  -1.180  1.00  0.00     0.047 A 
HETATM   12  N4  LIG X 999      -4.398   0.861  -0.500  1.00  0.00    -0.206 NA
HETATM   13  C16 LIG X 999      -4.540  -0.417  -1.141  1.00  0.00     0.278 A 
HETATM   14  O2  LIG X 999      -5.627  -0.855  -1.598  1.00  0.00    -0.265 OA
HETATM   15  C12 LIG X 999      -2.840  -2.350  -1.671  1.00  0.00     0.018 A 
HETATM   16  C13 LIG X 999      -1.475  -2.686  -1.518  1.00  0.00     0.002 A 
BRANCH   6  17
HETATM   17  C5  LIG X 999       1.148   0.248   0.481  1.00  0.00    -0.063 C 
HETATM   18  C4  LIG X 999       2.327   0.083   0.674  1.00  0.00    -0.064 C 
BRANCH  18  19
HETATM   19  C2  LIG X 999       3.769  -0.123   0.908  1.00  0.00     0.114 C 
HETATM   20  C1  LIG X 999       4.196   0.694   2.132  1.00  0.00     0.060 C 
HETATM   21  C3  LIG X 999       4.564   0.330  -0.327  1.00  0.00     0.060 C 
BRANCH  19  22
HETATM   22  O1  LIG X 999       4.017  -1.483   1.172  1.00  0.00    -0.378 OA
HETATM   23  H7  LIG X 999       3.737  -2.007   0.375  1.00  0.00     0.211 HD
ENDBRANCH  19  22
ENDBRANCH  18  19
ENDBRANCH   6  17
ENDBRANCH   1   4
TORSDOF 4
