REMARK  2 active torsions:
REMARK  status: ('A' for Active; 'I' for Inactive)
REMARK    1  A    between atoms: N3_3  and  C1_4 
REMARK    2  A    between atoms: C2_5  and  C3_6 
ROOT
HETATM    1  N1  LIG X 999       2.029   1.157   3.811  1.00  0.00     0.068 N 
HETATM    2  N2  LIG X 999       1.048   0.759   3.184  1.00  0.00    -0.162 NA
HETATM    3  N3  LIG X 999       0.068   0.355   2.557  1.00  0.00    -0.070 NA
ENDROOT
BRANCH   3   4
HETATM    4  C1  LIG X 999      -0.377   0.971   1.342  1.00  0.00     0.126 A 
HETATM    5  C2  LIG X 999      -0.151   2.325   1.028  1.00  0.00     0.086 A 
HETATM    6  S1  LIG X 999      -0.592   2.603  -0.570  1.00  0.00    -0.083 SA
HETATM    7  C4  LIG X 999      -1.104   1.038  -0.870  1.00  0.00     0.019 A 
HETATM    8  C5  LIG X 999      -1.594   0.555  -2.075  1.00  0.00     0.021 A 
HETATM    9  C13 LIG X 999      -0.958   0.242   0.268  1.00  0.00     0.025 A 
HETATM   10  C6  LIG X 999      -1.955  -0.788  -2.160  1.00  0.00     0.013 A 
HETATM   11  C7  LIG X 999      -1.845  -1.632  -1.038  1.00  0.00    -0.025 A 
HETATM   12  C8  LIG X 999      -2.231  -2.977  -1.149  1.00  0.00     0.012 A 
HETATM   13  C12 LIG X 999      -1.354  -1.126   0.207  1.00  0.00    -0.012 A 
HETATM   14  C9  LIG X 999      -2.158  -3.825  -0.045  1.00  0.00     0.001 A 
HETATM   15  C10 LIG X 999      -1.710  -3.338   1.181  1.00  0.00     0.001 A 
HETATM   16  C11 LIG X 999      -1.318  -2.004   1.314  1.00  0.00     0.013 A 
BRANCH   5  17
HETATM   17  C3  LIG X 999       0.292   3.401   1.929  1.00  0.00     0.177 A 
HETATM   18  N4  LIG X 999       0.956   4.500   1.524  1.00  0.00    -0.141 NA
HETATM   19  N5  LIG X 999       1.081   5.244   2.614  1.00  0.00     0.018 NA
HETATM   20  N6  LIG X 999       0.505   4.641   3.643  1.00  0.00    -0.005 NA
HETATM   21  N7  LIG X 999      -0.000   3.490   3.237  1.00  0.00    -0.267 N 
HETATM   22  H1  LIG X 999      -0.551   2.830   3.829  1.00  0.00     0.185 HD
ENDBRANCH   5  17
ENDBRANCH   3   4
TORSDOF 2
