REMARK  2 active torsions:
REMARK  status: ('A' for Active; 'I' for Inactive)
REMARK    1  A    between atoms: N1_1  and  C1_2 
REMARK    2  A    between atoms: C6_7  and  N2_8 
ROOT
HETATM    1  N2  LIG X 999      -2.342   1.630  -1.306  1.00  0.00    -0.233 NA
HETATM    2  C7  LIG X 999      -3.473   2.090  -1.672  1.00  0.00     0.163 C 
HETATM    3  S1  LIG X 999      -4.902   2.671  -2.134  1.00  0.00    -0.055 SA
ENDROOT
BRANCH   1   4
HETATM    4  C6  LIG X 999      -2.170   0.543  -0.377  1.00  0.00     0.069 A 
HETATM    5  C5  LIG X 999      -0.866   0.109  -0.038  1.00  0.00     0.005 A 
HETATM    6  C4  LIG X 999       0.263   0.720  -0.617  1.00  0.00     0.015 A 
HETATM    7  C11 LIG X 999      -0.683  -0.960   0.889  1.00  0.00     0.003 A 
HETATM    8  C3  LIG X 999       1.546   0.288  -0.297  1.00  0.00     0.003 A 
HETATM    9  C2  LIG X 999       1.732  -0.748   0.614  1.00  0.00     0.030 A 
HETATM   10  C1  LIG X 999       0.637  -1.374   1.226  1.00  0.00     0.036 A 
HETATM   11  C10 LIG X 999      -1.825  -1.588   1.430  1.00  0.00     0.014 A 
HETATM   12  C9  LIG X 999      -3.104  -1.155   1.089  1.00  0.00     0.003 A 
HETATM   13  C8  LIG X 999      -3.280  -0.100   0.201  1.00  0.00     0.032 A 
BRANCH  10  14
HETATM   14  N1  LIG X 999       0.904  -2.407   2.188  1.00  0.00    -0.398 N 
HETATM   15  H1  LIG X 999       1.877  -2.763   2.318  1.00  0.00     0.156 HD
HETATM   16  H2  LIG X 999       0.191  -2.762   2.859  1.00  0.00     0.156 HD
ENDBRANCH  10  14
ENDBRANCH   1   4
TORSDOF 2
