REMARK  4 active torsions:
REMARK  status: ('A' for Active; 'I' for Inactive)
REMARK    1  A    between atoms: O1_2  and  C2_3 
REMARK    2  A    between atoms: C5_6  and  N1_7 
REMARK    3  A    between atoms: C6_8  and  C7_9 
REMARK    4  A    between atoms: C7_9  and  N2_10 
ROOT
HETATM    1  N1  LIG X 999      -1.501   0.362   0.685  1.00  0.00    -0.296 N 
HETATM    2  C6  LIG X 999      -2.744   0.824   0.996  1.00  0.00     0.137 A 
HETATM    3  N3  LIG X 999      -3.727  -0.085   0.760  1.00  0.00    -0.231 NA
HETATM    4  C8  LIG X 999      -3.051  -1.154   0.299  1.00  0.00     0.087 A 
HETATM    5  C9  LIG X 999      -3.579  -2.380  -0.095  1.00  0.00     0.046 A 
HETATM    6  C10 LIG X 999      -2.681  -3.368  -0.554  1.00  0.00    -0.024 A 
HETATM    7  C11 LIG X 999      -3.154  -4.623  -0.963  1.00  0.00     0.012 A 
HETATM    8  C12 LIG X 999      -2.259  -5.598  -1.415  1.00  0.00     0.001 A 
HETATM    9  C13 LIG X 999      -0.888  -5.331  -1.462  1.00  0.00     0.001 A 
HETATM   10  C14 LIG X 999      -0.396  -4.086  -1.059  1.00  0.00     0.012 A 
HETATM   11  C15 LIG X 999      -1.277  -3.094  -0.603  1.00  0.00    -0.024 A 
HETATM   12  C16 LIG X 999      -0.787  -1.835  -0.195  1.00  0.00     0.044 A 
HETATM   13  C17 LIG X 999      -1.714  -0.889   0.245  1.00  0.00     0.070 A 
ENDROOT
BRANCH   1  14
HETATM   14  C5  LIG X 999      -0.249   1.062   0.754  1.00  0.00     0.041 A 
HETATM   15  C4  LIG X 999       0.232   1.534   1.982  1.00  0.00     0.033 A 
HETATM   16  C3  LIG X 999       1.452   2.212   2.046  1.00  0.00     0.039 A 
HETATM   17  C2  LIG X 999       2.210   2.425   0.888  1.00  0.00     0.068 A 
HETATM   18  C19 LIG X 999       1.728   1.944  -0.345  1.00  0.00     0.039 A 
HETATM   19  C18 LIG X 999       0.508   1.265  -0.408  1.00  0.00     0.033 A 
BRANCH  17  20
HETATM   20  O1  LIG X 999       3.427   3.112   1.004  1.00  0.00    -0.356 OA
HETATM   21  C1  LIG X 999       4.296   3.396  -0.087  1.00  0.00     0.210 C 
ENDBRANCH  17  20
ENDBRANCH   1  14
BRANCH   2  22
HETATM   22  C7  LIG X 999      -3.047   2.235   1.420  1.00  0.00     0.308 C 
BRANCH  22  23
HETATM   23  N2  LIG X 999      -3.015   3.138   0.271  1.00  0.00    -0.073 N 
HETATM   24  H8  LIG X 999      -3.713   2.832  -0.445  1.00  0.00     0.274 HD
HETATM   25  H9  LIG X 999      -3.256   4.104   0.589  1.00  0.00     0.274 HD
HETATM   26  H10 LIG X 999      -2.058   3.150  -0.152  1.00  0.00     0.274 HD
ENDBRANCH  22  23
ENDBRANCH   2  22
TORSDOF 4
