REMARK  3 active torsions:
REMARK  status: ('A' for Active; 'I' for Inactive)
REMARK    1  A    between atoms: C3_3  and  O1_4 
REMARK    2  A    between atoms: O1_4  and  C4_5 
REMARK    3  A    between atoms: C6_7  and  N1_8 
ROOT
HETATM    1  C1  LIG X 999      -4.667  -1.484   0.417  1.00  0.00     0.014 C 
HETATM    2  C2  LIG X 999      -4.260  -0.524   1.022  1.00  0.00    -0.091 C 
HETATM    3  C3  LIG X 999      -3.760   0.642   1.759  1.00  0.00     0.268 C 
ENDROOT
BRANCH   3   4
HETATM    4  O1  LIG X 999      -2.623   1.198   1.100  1.00  0.00    -0.339 OA
BRANCH   4   5
HETATM    5  C4  LIG X 999      -1.351   0.606   1.042  1.00  0.00     0.079 A 
HETATM    6  C5  LIG X 999      -1.036  -0.621   1.677  1.00  0.00     0.072 A 
HETATM    7  C6  LIG X 999       0.269  -1.186   1.589  1.00  0.00     0.108 A 
HETATM    8  C7  LIG X 999       1.274  -0.501   0.850  1.00  0.00     0.029 A 
HETATM    9  C8  LIG X 999       2.624  -0.919   0.659  1.00  0.00     0.047 A 
HETATM   10  C12 LIG X 999       0.903   0.705   0.248  1.00  0.00    -0.006 A 
HETATM   11 CL1  LIG X 999       3.289  -2.404   1.333  1.00  0.00    -0.083 Cl
HETATM   12  C9  LIG X 999       3.502  -0.117  -0.110  1.00  0.00     0.025 A 
HETATM   13  C10 LIG X 999       3.066   1.087  -0.690  1.00  0.00     0.010 A 
HETATM   14  C11 LIG X 999       1.744   1.478  -0.492  1.00  0.00    -0.046 A 
HETATM   15  C15 LIG X 999       1.039   2.697  -0.994  1.00  0.00     0.044 A 
HETATM   16  C14 LIG X 999      -0.399   2.539  -0.430  1.00  0.00     0.047 A 
HETATM   17  C13 LIG X 999      -0.341   1.248   0.328  1.00  0.00    -0.013 A 
BRANCH   7  18
HETATM   18  N1  LIG X 999       0.563  -2.432   2.239  1.00  0.00    -0.072 NA
HETATM   19  N2  LIG X 999      -0.278  -3.060   2.884  1.00  0.00    -0.162 NA
HETATM   20  N3  LIG X 999      -1.116  -3.689   3.528  1.00  0.00     0.068 N 
ENDBRANCH   7  18
ENDBRANCH   4   5
ENDBRANCH   3   4
TORSDOF 3
