REMARK  3 active torsions:
REMARK  status: ('A' for Active; 'I' for Inactive)
REMARK       I    between atoms: N3_3  and  C1_4 
REMARK    1  A    between atoms: C1_4  and  C2_6 
REMARK    2  A    between atoms: C6_10  and  N4_11 
REMARK    3  A    between atoms: C11_18  and  N7_19 
ROOT
HETATM    1  N1  LIG X 999      -2.738   1.195  -1.362  1.00  0.00     0.068 N 
HETATM    2  N2  LIG X 999      -2.952  -0.016  -1.350  1.00  0.00    -0.159 NA
HETATM    3  N3  LIG X 999      -3.167  -1.228  -1.337  1.00  0.00    -0.028 NA
HETATM    4  C1  LIG X 999      -2.129  -2.179  -1.073  1.00  0.00     0.311 C 
HETATM    5  O1  LIG X 999      -2.370  -3.404  -1.232  1.00  0.00    -0.263 OA
ENDROOT
BRANCH   4   6
HETATM    6  C2  LIG X 999      -0.769  -1.756  -0.666  1.00  0.00     0.066 A 
HETATM    7  C3  LIG X 999       0.303  -2.170  -1.465  1.00  0.00     0.020 A 
HETATM    8  C4  LIG X 999       1.596  -1.720  -1.216  1.00  0.00     0.016 A 
HETATM    9  C5  LIG X 999       1.855  -0.834  -0.159  1.00  0.00     0.008 A 
HETATM   10  C6  LIG X 999       3.164  -0.354   0.081  1.00  0.00     0.104 A 
HETATM   11  C10 LIG X 999       0.783  -0.424   0.681  1.00  0.00     0.006 A 
HETATM   12  C7  LIG X 999       3.391   0.527   1.153  1.00  0.00     0.035 A 
HETATM   13  C8  LIG X 999       2.341   0.925   1.976  1.00  0.00     0.003 A 
HETATM   14  C9  LIG X 999       1.049   0.456   1.748  1.00  0.00     0.015 A 
HETATM   15  C11 LIG X 999      -0.528  -0.913   0.453  1.00  0.00     0.085 A 
BRANCH  10  16
HETATM   16  N4  LIG X 999       4.248  -0.769  -0.769  1.00  0.00    -0.072 NA
HETATM   17  N5  LIG X 999       5.406  -0.382  -0.604  1.00  0.00    -0.162 NA
HETATM   18  N6  LIG X 999       6.562   0.004  -0.442  1.00  0.00     0.068 N 
ENDBRANCH  10  16
BRANCH  15  19
HETATM   19  N7  LIG X 999      -1.571  -0.547   1.377  1.00  0.00    -0.232 NA
HETATM   20  C12 LIG X 999      -2.531  -1.313   1.717  1.00  0.00     0.163 C 
HETATM   21  S1  LIG X 999      -3.744  -2.280   2.153  1.00  0.00    -0.055 SA
ENDBRANCH  15  19
ENDBRANCH   4   6
TORSDOF 3
