REMARK  3 active torsions:
REMARK  status: ('A' for Active; 'I' for Inactive)
REMARK    1  A    between atoms: C3_3  and  O1_4 
REMARK    2  A    between atoms: O1_4  and  C4_5 
REMARK    3  A    between atoms: C6_7  and  N1_8 
ROOT
HETATM    1  C1  LIG X 999      -1.837  -2.617   3.194  1.00  0.00     0.014 C 
HETATM    2  C2  LIG X 999      -2.144  -1.489   2.900  1.00  0.00    -0.091 C 
HETATM    3  C3  LIG X 999      -2.516  -0.117   2.539  1.00  0.00     0.268 C 
ENDROOT
BRANCH   3   4
HETATM    4  O1  LIG X 999      -2.631   0.015   1.124  1.00  0.00    -0.339 OA
BRANCH   4   5
HETATM    5  C4  LIG X 999      -1.609  -0.146   0.171  1.00  0.00     0.079 A 
HETATM    6  C5  LIG X 999      -2.001  -0.425  -1.153  1.00  0.00     0.072 A 
HETATM    7  C6  LIG X 999      -1.054  -0.610  -2.195  1.00  0.00     0.108 A 
HETATM    8  C7  LIG X 999       0.331  -0.493  -1.900  1.00  0.00     0.029 A 
HETATM    9  C8  LIG X 999       1.406  -0.629  -2.828  1.00  0.00     0.047 A 
HETATM   10  C12 LIG X 999       0.674  -0.201  -0.575  1.00  0.00    -0.006 A 
HETATM   11 CL1  LIG X 999       1.184  -1.008  -4.534  1.00  0.00    -0.083 Cl
HETATM   12  C9  LIG X 999       2.738  -0.453  -2.385  1.00  0.00     0.025 A 
HETATM   13  C10 LIG X 999       3.020  -0.141  -1.045  1.00  0.00     0.010 A 
HETATM   14  C11 LIG X 999       1.958  -0.019  -0.154  1.00  0.00    -0.046 A 
HETATM   15  C15 LIG X 999       1.999   0.322   1.295  1.00  0.00     0.044 A 
HETATM   16  C14 LIG X 999       0.505   0.326   1.703  1.00  0.00     0.047 A 
HETATM   17  C13 LIG X 999      -0.228  -0.035   0.439  1.00  0.00    -0.013 A 
BRANCH   7  18
HETATM   18  N1  LIG X 999      -1.496  -0.903  -3.529  1.00  0.00    -0.072 NA
HETATM   19  N2  LIG X 999      -2.687  -1.012  -3.827  1.00  0.00    -0.162 NA
HETATM   20  N3  LIG X 999      -3.875  -1.121  -4.125  1.00  0.00     0.068 N 
ENDBRANCH   7  18
ENDBRANCH   4   5
ENDBRANCH   3   4
TORSDOF 3
