REMARK  6 active torsions:
REMARK  status: ('A' for Active; 'I' for Inactive)
REMARK    1  A    between atoms: C2_2  and  N1_3 
REMARK    2  A    between atoms: N1_3  and  C5_6 
REMARK    3  A    between atoms: C5_6  and  C6_7 
REMARK    4  A    between atoms: C6_7  and  O1_8 
REMARK    5  A    between atoms: O1_8  and  C7_9 
REMARK    6  A    between atoms: C9_11  and  N2_12 
ROOT
HETATM    1  C7  LIG X 999       2.001  -0.335   0.045  1.00  0.00     0.072 A 
HETATM    2  C8  LIG X 999       2.985  -0.402  -0.949  1.00  0.00     0.065 A 
HETATM    3  C9  LIG X 999       4.328  -0.139  -0.644  1.00  0.00     0.029 A 
HETATM    4  C10 LIG X 999       4.688   0.192   0.669  1.00  0.00     0.052 A 
HETATM    5  C11 LIG X 999       3.713   0.261   1.669  1.00  0.00     0.038 A 
HETATM    6 CL1  LIG X 999       4.171   0.675   3.311  1.00  0.00    -0.084 Cl
HETATM    7  C12 LIG X 999       2.374  -0.002   1.362  1.00  0.00     0.060 A 
ENDROOT
BRANCH   1   8
HETATM    8  O1  LIG X 999       0.673  -0.605  -0.315  1.00  0.00    -0.349 OA
BRANCH   8   9
HETATM    9  C6  LIG X 999      -0.436  -0.545   0.578  1.00  0.00     0.203 C 
BRANCH   9  10
HETATM   10  C5  LIG X 999      -1.743  -0.905  -0.159  1.00  0.00     0.263 C 
BRANCH  10  11
HETATM   11  N1  LIG X 999      -2.317   0.167  -1.037  1.00  0.00    -0.073 N 
HETATM   12  C3  LIG X 999      -1.380   0.479  -2.147  1.00  0.00     0.272 C 
HETATM   13  C4  LIG X 999      -3.561  -0.365  -1.652  1.00  0.00     0.272 C 
BRANCH  11  14
HETATM   14  C2  LIG X 999      -2.621   1.442  -0.310  1.00  0.00     0.232 C 
HETATM   15  C1  LIG X 999      -3.470   1.286   0.963  1.00  0.00     0.034 C 
ENDBRANCH  11  14
ENDBRANCH  10  11
ENDBRANCH   9  10
ENDBRANCH   8   9
ENDBRANCH   1   8
BRANCH   3  16
HETATM   16  N2  LIG X 999       5.324  -0.209  -1.667  1.00  0.00    -0.399 N 
HETATM   17  H17 LIG X 999       5.067  -0.455  -2.649  1.00  0.00     0.156 HD
HETATM   18  H18 LIG X 999       6.328  -0.015  -1.450  1.00  0.00     0.156 HD
ENDBRANCH   3  16
TORSDOF 6
