REMARK  3 active torsions:
REMARK  status: ('A' for Active; 'I' for Inactive)
REMARK    1  A    between atoms: C3_3  and  C4_4 
REMARK    2  A    between atoms: C6_6  and  N1_7 
REMARK    3  A    between atoms: C8_9  and  O1_10 
ROOT
HETATM    1  C1  LIG X 999      -0.929  -2.168   0.735  1.00  0.00     0.053 C 
HETATM    2  C2  LIG X 999      -1.444  -0.948   0.015  1.00  0.00    -0.005 A 
HETATM    3  C3  LIG X 999      -1.116   0.383   0.413  1.00  0.00     0.075 A 
HETATM    4  N2  LIG X 999      -1.673   1.448  -0.249  1.00  0.00    -0.259 NA
HETATM    5  C10 LIG X 999      -2.513   1.299  -1.311  1.00  0.00     0.131 A 
HETATM    6  C11 LIG X 999      -2.803   0.013  -1.738  1.00  0.00     0.010 A 
HETATM    7  C12 LIG X 999      -3.587  -0.434  -2.778  1.00  0.00     0.032 A 
HETATM    8  C13 LIG X 999      -3.499  -1.820  -2.722  1.00  0.00     0.089 A 
HETATM    9  N3  LIG X 999      -2.704  -2.210  -1.700  1.00  0.00    -0.365 N 
HETATM   10  C14 LIG X 999      -2.283  -1.079  -1.102  1.00  0.00     0.052 A 
HETATM   11  H13 LIG X 999      -2.466  -3.194  -1.447  1.00  0.00     0.165 HD
ENDROOT
BRANCH   3  12
HETATM   12  C4  LIG X 999      -0.187   0.671   1.526  1.00  0.00    -0.002 A 
HETATM   13  C5  LIG X 999      -0.579   1.545   2.553  1.00  0.00     0.043 A 
HETATM   14  C6  LIG X 999       0.301   1.849   3.601  1.00  0.00     0.029 A 
HETATM   15  C7  LIG X 999       1.585   1.287   3.615  1.00  0.00     0.065 A 
HETATM   16  C8  LIG X 999       1.992   0.433   2.585  1.00  0.00     0.068 A 
HETATM   17  C9  LIG X 999       1.110   0.132   1.538  1.00  0.00     0.050 A 
BRANCH  14  18
HETATM   18  N1  LIG X 999      -0.109   2.729   4.651  1.00  0.00    -0.399 N 
HETATM   19  H5  LIG X 999       0.538   2.962   5.437  1.00  0.00     0.156 HD
HETATM   20  H6  LIG X 999      -1.063   3.154   4.651  1.00  0.00     0.156 HD
ENDBRANCH  14  18
BRANCH  16  21
HETATM   21  O1  LIG X 999       3.276  -0.106   2.608  1.00  0.00    -0.361 OA
HETATM   22  H8  LIG X 999       3.603  -0.728   1.877  1.00  0.00     0.217 HD
ENDBRANCH  16  21
ENDBRANCH   3  12
TORSDOF 3
