REMARK  2 active torsions:
REMARK  status: ('A' for Active; 'I' for Inactive)
REMARK    1  A    between atoms: O1_1  and  C1_2 
REMARK    2  A    between atoms: C5_7  and  N1_8 
ROOT
HETATM    1  N1  LIG X 999      -2.491   1.133  -0.856  1.00  0.00    -0.234 NA
HETATM    2  C6  LIG X 999      -3.108   1.892  -0.041  1.00  0.00     0.163 C 
HETATM    3  S1  LIG X 999      -3.888   2.852   0.992  1.00  0.00    -0.055 SA
ENDROOT
BRANCH   1   4
HETATM    4  C5  LIG X 999      -1.216   0.531  -0.582  1.00  0.00     0.062 A 
HETATM    5  C4  LIG X 999      -0.534   0.736   0.635  1.00  0.00     0.055 A 
HETATM    6  C3  LIG X 999       0.706   0.128   0.858  1.00  0.00     0.038 A 
HETATM    7  C2  LIG X 999       1.275  -0.686  -0.127  1.00  0.00     0.060 A 
HETATM    8 CL1  LIG X 999       1.549   0.387   2.374  1.00  0.00    -0.084 Cl
HETATM    9  C1  LIG X 999       0.604  -0.895  -1.339  1.00  0.00     0.069 A 
HETATM   10  C7  LIG X 999      -0.637  -0.287  -1.561  1.00  0.00     0.068 A 
BRANCH   9  11
HETATM   11  O1  LIG X 999       1.160  -1.704  -2.327  1.00  0.00    -0.361 OA
HETATM   12  H1  LIG X 999       2.056  -2.158  -2.197  1.00  0.00     0.217 HD
ENDBRANCH   9  11
ENDBRANCH   1   4
TORSDOF 2
