REMARK  2 active torsions:
REMARK  status: ('A' for Active; 'I' for Inactive)
REMARK    1  A    between atoms: N3_11  and  C8_12 
REMARK    2  A    between atoms: C8_12  and  C9_13 
ROOT
HETATM    1  O1  LIG X 999      -0.692   1.812   1.480  1.00  0.00    -0.264 OA
HETATM    2  C1  LIG X 999       0.154   1.130   0.837  1.00  0.00     0.293 A 
HETATM    3  C2  LIG X 999       0.800   1.688  -0.271  1.00  0.00     0.137 A 
HETATM    4  N1  LIG X 999       0.536   2.965  -0.666  1.00  0.00    -0.255 NA
HETATM    5  C3  LIG X 999       1.155   3.522  -1.742  1.00  0.00     0.117 A 
HETATM    6  C4  LIG X 999       2.088   2.783  -2.475  1.00  0.00     0.020 A 
HETATM    7  C5  LIG X 999       2.378   1.471  -2.094  1.00  0.00     0.017 A 
HETATM    8  C6  LIG X 999       1.731   0.913  -0.984  1.00  0.00     0.018 A 
HETATM    9  C7  LIG X 999       1.983  -0.392  -0.565  1.00  0.00     0.152 A 
HETATM   10  N2  LIG X 999       1.327  -0.884   0.517  1.00  0.00    -0.181 NA
HETATM   11  N3  LIG X 999       0.446  -0.157   1.212  1.00  0.00    -0.229 N 
ENDROOT
BRANCH  11  12
HETATM   12  C8  LIG X 999      -0.232  -0.792   2.347  1.00  0.00     0.195 C 
BRANCH  12  13
HETATM   13  C9  LIG X 999      -1.545  -1.363   1.906  1.00  0.00    -0.014 A 
HETATM   14  C10 LIG X 999      -2.782  -0.766   2.020  1.00  0.00     0.035 A 
HETATM   15  C11 LIG X 999      -3.665  -1.635   1.411  1.00  0.00     0.142 A 
HETATM   16  O2  LIG X 999      -3.015  -2.680   0.949  1.00  0.00    -0.334 OA
HETATM   17  C12 LIG X 999      -1.738  -2.545   1.224  1.00  0.00     0.150 A 
ENDBRANCH  12  13
ENDBRANCH  11  12
TORSDOF 2
