REMARK  2 active torsions:
REMARK  status: ('A' for Active; 'I' for Inactive)
REMARK    1  A    between atoms: N1_1  and  C1_2 
REMARK    2  A    between atoms: C3_4  and  O1_5 
ROOT
HETATM    1  C1  LIG X 999       0.771   0.105   0.687  1.00  0.00     0.029 A 
HETATM    2  C2  LIG X 999       1.496   1.026  -0.084  1.00  0.00     0.065 A 
HETATM    3  C3  LIG X 999       0.980   1.485  -1.305  1.00  0.00     0.069 A 
HETATM    4  C4  LIG X 999      -0.261   1.022  -1.754  1.00  0.00     0.060 A 
HETATM    5  C5  LIG X 999      -0.988   0.104  -0.988  1.00  0.00     0.038 A 
HETATM    6 CL1  LIG X 999      -2.545  -0.473  -1.555  1.00  0.00    -0.084 Cl
HETATM    7  C6  LIG X 999      -0.473  -0.353   0.230  1.00  0.00     0.052 A 
ENDROOT
BRANCH   1   8
HETATM    8  N1  LIG X 999       1.297  -0.362   1.932  1.00  0.00    -0.399 N 
HETATM    9  H1  LIG X 999       0.765  -1.047   2.514  1.00  0.00     0.156 HD
HETATM   10  H2  LIG X 999       2.222  -0.027   2.281  1.00  0.00     0.156 HD
ENDBRANCH   1   8
BRANCH   3  11
HETATM   11  O1  LIG X 999       1.693   2.399  -2.078  1.00  0.00    -0.361 OA
HETATM   12  H4  LIG X 999       2.595   2.753  -1.781  1.00  0.00     0.217 HD
ENDBRANCH   3  11
TORSDOF 2
