REMARK  3 active torsions:
REMARK  status: ('A' for Active; 'I' for Inactive)
REMARK    1  A    between atoms: N1_1  and  N2_2 
REMARK    2  A    between atoms: N2_2  and  C1_3 
REMARK    3  A    between atoms: C1_3  and  C2_4 
ROOT
HETATM    1  C1  LIG X 999       1.556   0.858   0.516  1.00  0.00     0.145 C 
ENDROOT
BRANCH   1   2
HETATM    2  N2  LIG X 999       1.104  -0.456   0.034  1.00  0.00    -0.259 NA
HETATM    3  H3  LIG X 999       1.924  -1.106   0.050  1.00  0.00     0.140 HD
BRANCH   2   4
HETATM    4  N1  LIG X 999       0.129  -1.000   0.898  1.00  0.00    -0.271 NA
HETATM    5  H1  LIG X 999      -0.724  -0.396   0.870  1.00  0.00     0.137 HD
HETATM    6  H2  LIG X 999       0.495  -1.030   1.879  1.00  0.00     0.137 HD
ENDBRANCH   2   4
ENDBRANCH   1   2
BRANCH   1   7
HETATM    7  C2  LIG X 999       0.542   1.913   0.198  1.00  0.00    -0.020 A 
HETATM    8  C3  LIG X 999       0.243   2.416  -1.049  1.00  0.00     0.035 A 
HETATM    9  C4  LIG X 999      -0.776   3.324  -0.845  1.00  0.00     0.142 A 
HETATM   10  O1  LIG X 999      -1.083   3.369   0.433  1.00  0.00    -0.334 OA
HETATM   11  C5  LIG X 999      -0.313   2.531   1.088  1.00  0.00     0.149 A 
ENDBRANCH   1   7
TORSDOF 3
