REMARK  2 active torsions:
REMARK  status: ('A' for Active; 'I' for Inactive)
REMARK    1  A    between atoms: C2_2  and  N1_3 
REMARK    2  A    between atoms: C3_4  and  C4_5 
ROOT
HETATM    1  N1  LIG X 999      -0.002   0.614  -0.755  1.00  0.00    -0.035 N 
HETATM    2  C3  LIG X 999       1.154  -0.035  -0.081  1.00  0.00     0.258 C 
HETATM    3  C5  LIG X 999       0.663  -0.221   1.372  1.00  0.00     0.027 C 
HETATM    4  C6  LIG X 999      -0.546  -1.189   1.410  1.00  0.00     0.028 C 
HETATM    5  C7  LIG X 999      -1.685  -0.334   0.816  1.00  0.00     0.124 C 
HETATM    6  C8  LIG X 999      -2.429  -1.016  -0.257  1.00  0.00     0.066 C 
HETATM    7  N2  LIG X 999      -3.014  -1.552  -1.100  1.00  0.00    -0.197 NA
HETATM    8  C9  LIG X 999      -0.924   0.942   0.371  1.00  0.00     0.212 C 
HETATM    9  C10 LIG X 999      -0.018   1.107   1.582  1.00  0.00     0.042 C 
HETATM   10  H4  LIG X 999      -0.466  -0.059  -1.406  1.00  0.00     0.287 HD
ENDROOT
BRANCH   1  11
HETATM   11  C2  LIG X 999       0.330   1.762  -1.587  1.00  0.00     0.191 C 
HETATM   12  C1  LIG X 999       1.057   2.816  -1.190  1.00  0.00     0.037 C 
ENDBRANCH   1  11
BRANCH   2  13
HETATM   13  C4  LIG X 999       1.580  -1.329  -0.736  1.00  0.00     0.265 C 
HETATM   14  O1  LIG X 999       2.510  -1.970  -0.273  1.00  0.00    -0.305 OA
ENDBRANCH   2  13
TORSDOF 2
