REMARK  3 active torsions:
REMARK  status: ('A' for Active; 'I' for Inactive)
REMARK    1  A    between atoms: C2_2  and  N1_3 
REMARK    2  A    between atoms: C3_4  and  C4_5 
REMARK    3  A    between atoms: C7_9  and  O2_10 
ROOT
HETATM    1  N1  LIG X 999      -0.269  -2.194   0.372  1.00  0.00    -0.034 N 
HETATM    2  C3  LIG X 999      -1.328  -1.362  -0.267  1.00  0.00     0.258 C 
HETATM    3  C5  LIG X 999      -0.532  -0.275  -1.030  1.00  0.00     0.028 C 
HETATM    4  C6  LIG X 999      -0.031   0.748  -0.003  1.00  0.00     0.041 C 
HETATM    5  C7  LIG X 999       1.058  -0.044   0.737  1.00  0.00     0.149 C 
HETATM    6  C8  LIG X 999       0.980  -1.449   0.058  1.00  0.00     0.223 C 
HETATM    7  C9  LIG X 999       0.741  -1.020  -1.373  1.00  0.00     0.043 C 
HETATM    8  H4  LIG X 999      -0.201  -3.130  -0.098  1.00  0.00     0.287 HD
ENDROOT
BRANCH   1   9
HETATM    9  C2  LIG X 999      -0.450  -2.465   1.786  1.00  0.00     0.191 C 
HETATM   10  C1  LIG X 999      -1.585  -2.974   2.280  1.00  0.00     0.037 C 
ENDBRANCH   1   9
BRANCH   2  11
HETATM   11  C4  LIG X 999      -2.177  -2.167  -1.230  1.00  0.00     0.265 C 
HETATM   12  O1  LIG X 999      -2.920  -3.043  -0.818  1.00  0.00    -0.305 OA
ENDBRANCH   2  11
BRANCH   5  13
HETATM   13  O2  LIG X 999       0.835  -0.066   2.120  1.00  0.00    -0.393 OA
HETATM   14  H11 LIG X 999       1.040   0.846   2.453  1.00  0.00     0.210 HD
ENDBRANCH   5  13
TORSDOF 3
