REMARK  3 active torsions:
REMARK  status: ('A' for Active; 'I' for Inactive)
REMARK    1  A    between atoms: N1_1  and  C1_2 
REMARK    2  A    between atoms: C5_7  and  O1_8 
REMARK    3  A    between atoms: C6_9  and  C7_10 
ROOT
HETATM    1  C1  LIG X 999      -1.699  -0.127  -0.386  1.00  0.00     0.043 A 
HETATM    2  C2  LIG X 999      -1.625  -1.230   0.477  1.00  0.00     0.054 A 
HETATM    3  C3  LIG X 999      -0.477  -1.466   1.232  1.00  0.00     0.038 A 
HETATM    4 CL1  LIG X 999      -0.410  -2.841   2.321  1.00  0.00    -0.084 Cl
HETATM    5  C4  LIG X 999       0.614  -0.605   1.130  1.00  0.00     0.061 A 
HETATM    6  C5  LIG X 999       0.580   0.487   0.258  1.00  0.00     0.082 A 
HETATM    7  C6  LIG X 999      -0.580   0.738  -0.518  1.00  0.00     0.061 A 
ENDROOT
BRANCH   1   8
HETATM    8  N1  LIG X 999      -2.935   0.123  -1.071  1.00  0.00    -0.398 N 
HETATM    9  H1  LIG X 999      -3.708  -0.579  -1.038  1.00  0.00     0.156 HD
HETATM   10  H2  LIG X 999      -3.149   1.041  -1.517  1.00  0.00     0.156 HD
ENDBRANCH   1   8
BRANCH   7  11
HETATM   11  C7  LIG X 999      -0.602   1.882  -1.455  1.00  0.00     0.275 C 
HETATM   12  O2  LIG X 999      -1.088   1.762  -2.611  1.00  0.00    -0.301 OA
ENDBRANCH   7  11
BRANCH   6  13
HETATM   13  O1  LIG X 999       1.724   1.284   0.172  1.00  0.00    -0.360 OA
HETATM   14  H5  LIG X 999       1.822   2.055  -0.475  1.00  0.00     0.217 HD
ENDBRANCH   6  13
TORSDOF 3
