REMARK  2 active torsions:
REMARK  status: ('A' for Active; 'I' for Inactive)
REMARK    1  A    between atoms: N1_1  and  C1_2 
REMARK    2  A    between atoms: C6_9  and  C7_10 
ROOT
HETATM    1  C1  LIG X 999      -0.093   1.172   1.534  1.00  0.00     0.043 A 
HETATM    2  C2  LIG X 999      -0.751   0.859   0.334  1.00  0.00     0.054 A 
HETATM    3  C3  LIG X 999      -1.300  -0.408   0.132  1.00  0.00     0.039 A 
HETATM    4 CL1  LIG X 999      -2.103  -0.786  -1.382  1.00  0.00    -0.084 Cl
HETATM    5  C4  LIG X 999      -1.198  -1.379   1.128  1.00  0.00     0.065 A 
HETATM    6  C5  LIG X 999      -0.567  -1.082   2.339  1.00  0.00     0.124 A 
HETATM    7  O1  LIG X 999      -0.502  -2.067   3.320  1.00  0.00    -0.191 OA
HETATM    8  C6  LIG X 999      -0.024   0.200   2.568  1.00  0.00     0.064 A 
ENDROOT
BRANCH   1   9
HETATM    9  N1  LIG X 999       0.542   2.453   1.650  1.00  0.00    -0.398 N 
HETATM   10  H1  LIG X 999       0.360   3.197   0.940  1.00  0.00     0.156 HD
HETATM   11  H2  LIG X 999       1.306   2.632   2.336  1.00  0.00     0.156 HD
ENDBRANCH   1   9
BRANCH   8  12
HETATM   12  C7  LIG X 999       0.565   0.487   3.896  1.00  0.00     0.275 C 
HETATM   13  O2  LIG X 999       0.547   1.647   4.387  1.00  0.00    -0.301 OA
ENDBRANCH   8  12
TORSDOF 2
