REMARK  0 active torsions:
REMARK  status: ('A' for Active; 'I' for Inactive)
ROOT
HETATM    1  N1  LIG X 999       3.288  -1.400   0.239  1.00  0.00    -0.191 NA
HETATM    2  C1  LIG X 999       2.197  -1.018   0.168  1.00  0.00     0.107 C 
HETATM    3  C2  LIG X 999       0.844  -0.545   0.081  1.00  0.00     0.086 A 
HETATM    4  C3  LIG X 999       0.462   0.781  -0.071  1.00  0.00     0.032 A 
HETATM    5  C4  LIG X 999      -0.927   0.944  -0.126  1.00  0.00     0.033 A 
HETATM    6  C5  LIG X 999      -1.621  -0.253  -0.017  1.00  0.00     0.075 A 
HETATM    7 CL1  LIG X 999      -3.362  -0.430  -0.045  1.00  0.00    -0.076 Cl
HETATM    8  S1  LIG X 999      -0.525  -1.518   0.148  1.00  0.00    -0.067 SA
ENDROOT
TORSDOF 0
