REMARK  6 active torsions:
REMARK  status: ('A' for Active; 'I' for Inactive)
REMARK    1  A    between atoms: N1_1  and  N2_2 
REMARK    2  A    between atoms: N2_2  and  C1_3 
REMARK    3  A    between atoms: N2_2  and  C6_9 
REMARK    4  A    between atoms: C1_3  and  C2_4 
REMARK    5  A    between atoms: C9_13  and  C10_14 
REMARK    6  A    between atoms: C10_14  and  N4_15 
ROOT
HETATM    1  C6  LIG X 999       0.199  -0.143  -1.567  1.00  0.00     0.179 A 
HETATM    2  N3  LIG X 999       1.325   0.542  -1.219  1.00  0.00    -0.239 NA
HETATM    3  C7  LIG X 999       2.488  -0.081  -0.899  1.00  0.00     0.119 A 
HETATM    4  C8  LIG X 999       2.563  -1.472  -0.920  1.00  0.00     0.031 A 
HETATM    5  C9  LIG X 999       1.435  -2.220  -1.280  1.00  0.00     0.011 A 
HETATM    6  C11 LIG X 999       0.237  -1.553  -1.593  1.00  0.00     0.171 A 
HETATM    7  F1  LIG X 999      -0.875  -2.275  -1.885  1.00  0.00    -0.201 F 
ENDROOT
BRANCH   1   8
HETATM    8  N2  LIG X 999      -1.006   0.587  -1.884  1.00  0.00    -0.292 N 
BRANCH   8   9
HETATM    9  N1  LIG X 999      -2.043  -0.039  -2.600  1.00  0.00    -0.245 NA
HETATM   10  H1  LIG X 999      -2.928   0.092  -2.059  1.00  0.00     0.143 HD
HETATM   11  H2  LIG X 999      -2.147   0.462  -3.512  1.00  0.00     0.143 HD
ENDBRANCH   8   9
BRANCH   8  12
HETATM   12  C1  LIG X 999      -1.132   2.008  -1.536  1.00  0.00     0.185 C 
BRANCH  12  13
HETATM   13  C2  LIG X 999      -1.261   2.167  -0.053  1.00  0.00    -0.015 A 
HETATM   14  C3  LIG X 999      -2.354   1.830   0.716  1.00  0.00     0.035 A 
HETATM   15  C4  LIG X 999      -1.987   2.104   2.017  1.00  0.00     0.142 A 
HETATM   16  O1  LIG X 999      -0.757   2.569   2.045  1.00  0.00    -0.334 OA
HETATM   17  C5  LIG X 999      -0.290   2.615   0.819  1.00  0.00     0.150 A 
ENDBRANCH  12  13
ENDBRANCH   8  12
ENDBRANCH   1   8
BRANCH   5  18
HETATM   18  C10 LIG X 999       1.496  -3.728  -1.262  1.00  0.00     0.271 C 
BRANCH  18  19
HETATM   19  N4  LIG X 999       1.084  -4.246   0.042  1.00  0.00    -0.075 N 
HETATM   20  H12 LIG X 999       0.099  -3.962   0.246  1.00  0.00     0.274 HD
HETATM   21  H13 LIG X 999       1.140  -5.290   0.029  1.00  0.00     0.274 HD
HETATM   22  H14 LIG X 999       1.720  -3.882   0.789  1.00  0.00     0.274 HD
ENDBRANCH  18  19
ENDBRANCH   5  18
TORSDOF 6
