REMARK  0 active torsions:
REMARK  status: ('A' for Active; 'I' for Inactive)
ROOT
HETATM    1  N1  LIG X 999      -0.803   1.359   0.297  1.00  0.00    -0.191 NA
HETATM    2  C1  LIG X 999       0.236   0.861   0.192  1.00  0.00     0.107 C 
HETATM    3  C2  LIG X 999       1.526   0.243   0.062  1.00  0.00     0.086 A 
HETATM    4  C3  LIG X 999       1.876  -1.006   0.558  1.00  0.00     0.032 A 
HETATM    5  C4  LIG X 999       3.204  -1.350   0.280  1.00  0.00     0.033 A 
HETATM    6  C5  LIG X 999       3.882  -0.370  -0.431  1.00  0.00     0.075 A 
HETATM    7 CL1  LIG X 999       5.552  -0.458  -0.950  1.00  0.00    -0.076 Cl
HETATM    8  S1  LIG X 999       2.849   0.925  -0.720  1.00  0.00    -0.067 SA
ENDROOT
TORSDOF 0
