REMARK  3 active torsions:
REMARK  status: ('A' for Active; 'I' for Inactive)
REMARK    1  A    between atoms: C2_2  and  N1_3 
REMARK    2  A    between atoms: C7_8  and  O1_9 
REMARK    3  A    between atoms: C8_10  and  C9_11 
ROOT
HETATM    1  N1  LIG X 999       0.439   0.078  -0.810  1.00  0.00    -0.372 N 
HETATM    2  C3  LIG X 999      -0.178  -1.197  -0.427  1.00  0.00     0.113 C 
HETATM    3  C4  LIG X 999      -1.385  -1.250  -1.336  1.00  0.00     0.035 C 
HETATM    4  C5  LIG X 999      -1.892   0.116  -0.916  1.00  0.00     0.019 C 
HETATM    5  C6  LIG X 999      -2.036  -0.085   0.607  1.00  0.00     0.041 C 
HETATM    6  C7  LIG X 999      -0.831  -0.994   0.951  1.00  0.00     0.141 C 
HETATM    7  C8  LIG X 999      -0.644   0.995  -1.164  1.00  0.00     0.150 C 
ENDROOT
BRANCH   1   8
HETATM    8  C2  LIG X 999       1.768   0.524  -0.491  1.00  0.00     0.076 C 
HETATM    9  C1  LIG X 999       2.675  -0.268   0.077  1.00  0.00     0.029 C 
ENDBRANCH   1   8
BRANCH   7  10
HETATM   10  C9  LIG X 999      -0.530   1.428  -2.601  1.00  0.00     0.256 C 
HETATM   11  O2  LIG X 999      -1.343   2.206  -3.074  1.00  0.00    -0.305 OA
ENDBRANCH   7  10
BRANCH   6  12
HETATM   12  O1  LIG X 999      -1.254  -2.226   1.474  1.00  0.00    -0.393 OA
HETATM   13  H11 LIG X 999      -1.544  -2.047   2.406  1.00  0.00     0.210 HD
ENDBRANCH   6  12
TORSDOF 3
