REMARK  1 active torsions:
REMARK  status: ('A' for Active; 'I' for Inactive)
REMARK    1  A    between atoms: N1_1  and  C1_2 
ROOT
HETATM    1  C1  LIG X 999       0.919  -0.072  -0.085  1.00  0.00     0.030 A 
HETATM    2  C2  LIG X 999       0.220  -1.080   0.597  1.00  0.00     0.069 A 
HETATM    3  C3  LIG X 999      -1.170  -1.003   0.732  1.00  0.00     0.111 A 
HETATM    4  O1  LIG X 999      -1.858  -2.003   1.407  1.00  0.00    -0.192 OA
HETATM    5  C4  LIG X 999      -1.868   0.080   0.187  1.00  0.00     0.064 A 
HETATM    6  C5  LIG X 999      -1.176   1.087  -0.494  1.00  0.00     0.038 A 
HETATM    7 CL1  LIG X 999      -2.052   2.445  -1.177  1.00  0.00    -0.084 Cl
HETATM    8  C6  LIG X 999       0.215   1.012  -0.630  1.00  0.00     0.052 A 
ENDROOT
BRANCH   1   9
HETATM    9  N1  LIG X 999       2.341  -0.150  -0.223  1.00  0.00    -0.399 N 
HETATM   10  H1  LIG X 999       2.870   0.595  -0.729  1.00  0.00     0.156 HD
HETATM   11  H2  LIG X 999       2.874  -0.953   0.179  1.00  0.00     0.156 HD
ENDBRANCH   1   9
TORSDOF 1
