REMARK  3 active torsions:
REMARK  status: ('A' for Active; 'I' for Inactive)
REMARK    1  A    between atoms: N1_1  and  N2_2 
REMARK    2  A    between atoms: N2_2  and  C1_3 
REMARK    3  A    between atoms: C1_3  and  C2_4 
ROOT
HETATM    1  C1  LIG X 999      -0.104  -0.274   1.375  1.00  0.00     0.145 C 
ENDROOT
BRANCH   1   2
HETATM    2  N2  LIG X 999       0.293  -1.692   1.383  1.00  0.00    -0.259 NA
HETATM    3  H3  LIG X 999      -0.535  -2.297   1.173  1.00  0.00     0.140 HD
BRANCH   2   4
HETATM    4  N1  LIG X 999       1.282  -1.950   0.409  1.00  0.00    -0.271 NA
HETATM    5  H1  LIG X 999       0.926  -1.687  -0.539  1.00  0.00     0.137 HD
HETATM    6  H2  LIG X 999       2.128  -1.375   0.627  1.00  0.00     0.137 HD
ENDBRANCH   2   4
ENDBRANCH   1   2
BRANCH   1   7
HETATM    7  C2  LIG X 999      -0.961   0.066   0.187  1.00  0.00    -0.020 A 
HETATM    8  C3  LIG X 999      -0.566   0.740  -0.949  1.00  0.00     0.035 A 
HETATM    9  C4  LIG X 999      -1.680   0.776  -1.761  1.00  0.00     0.142 A 
HETATM   10  O1  LIG X 999      -2.683   0.165  -1.170  1.00  0.00    -0.334 OA
HETATM   11  C5  LIG X 999      -2.284  -0.276   0.001  1.00  0.00     0.149 A 
ENDBRANCH   1   7
TORSDOF 3
