REMARK  2 active torsions:
REMARK  status: ('A' for Active; 'I' for Inactive)
REMARK    1  A    between atoms: C2_2  and  N1_3 
REMARK    2  A    between atoms: C9_11  and  C10_12 
ROOT
HETATM    1  N1  LIG X 999       1.136   0.049   0.614  1.00  0.00    -0.373 N 
HETATM    2  C3  LIG X 999      -0.277  -0.187   0.927  1.00  0.00     0.102 C 
HETATM    3  C4  LIG X 999      -0.625  -1.315  -0.020  1.00  0.00     0.033 C 
HETATM    4  C5  LIG X 999      -0.127  -0.577  -1.248  1.00  0.00     0.018 C 
HETATM    5  C6  LIG X 999      -0.990   0.702  -1.187  1.00  0.00     0.028 C 
HETATM    6  C7  LIG X 999      -1.075   0.990   0.332  1.00  0.00     0.116 C 
HETATM    7  C8  LIG X 999      -2.466   1.005   0.820  1.00  0.00     0.066 C 
HETATM    8  N2  LIG X 999      -3.558   1.017   1.204  1.00  0.00    -0.197 NA
HETATM    9  C9  LIG X 999       1.311  -0.206  -0.818  1.00  0.00     0.149 C 
ENDROOT
BRANCH   1  10
HETATM   10  C2  LIG X 999       2.069   0.826   1.385  1.00  0.00     0.076 C 
HETATM   11  C1  LIG X 999       1.790   1.278   2.607  1.00  0.00     0.029 C 
ENDBRANCH   1  10
BRANCH   9  12
HETATM   12  C10 LIG X 999       2.277  -1.335  -1.075  1.00  0.00     0.256 C 
HETATM   13  O1  LIG X 999       2.907  -1.851  -0.164  1.00  0.00    -0.305 OA
ENDBRANCH   9  12
TORSDOF 2
