REMARK  9 active torsions:
REMARK  status: ('A' for Active; 'I' for Inactive)
REMARK    1  A    between atoms: N1_1  and  C1_2 
REMARK    2  A    between atoms: C5_7  and  S1_8 
REMARK    3  A    between atoms: S1_8  and  C6_9 
REMARK    4  A    between atoms: C6_9  and  C7_10 
REMARK    5  A    between atoms: C7_10  and  C8_11 
REMARK    6  A    between atoms: C8_11  and  N2_12 
REMARK       I    between atoms: N2_12  and  C9_13 
REMARK    7  A    between atoms: C9_13  and  O3_15 
REMARK    8  A    between atoms: O3_15  and  C10_16 
REMARK    9  A    between atoms: C10_16  and  C11_17 
ROOT
HETATM    1  S1  LIG X 999      -1.259   0.062   2.597  1.00  0.00    -0.130 SA
ENDROOT
BRANCH   1   2
HETATM    2  C5  LIG X 999      -2.919   0.497   2.070  1.00  0.00     0.005 A 
HETATM    3  C4  LIG X 999      -3.406   1.792   2.286  1.00  0.00     0.058 A 
HETATM    4  C3  LIG X 999      -4.702   2.129   1.886  1.00  0.00     0.110 A 
HETATM    5  C2  LIG X 999      -5.519   1.170   1.277  1.00  0.00     0.069 A 
HETATM    6  O1  LIG X 999      -5.181   3.417   2.095  1.00  0.00    -0.192 OA
HETATM    7  C1  LIG X 999      -5.042  -0.132   1.068  1.00  0.00     0.029 A 
HETATM    8  C12 LIG X 999      -3.741  -0.466   1.472  1.00  0.00     0.047 A 
BRANCH   7   9
HETATM    9  N1  LIG X 999      -5.877  -1.114   0.449  1.00  0.00    -0.399 N 
HETATM   10  H1  LIG X 999      -5.530  -2.086   0.289  1.00  0.00     0.156 HD
HETATM   11  H2  LIG X 999      -6.847  -0.876   0.146  1.00  0.00     0.156 HD
ENDBRANCH   7   9
ENDBRANCH   1   2
BRANCH   1  12
HETATM   12  C6  LIG X 999      -0.427   0.676   1.085  1.00  0.00     0.081 C 
BRANCH  12  13
HETATM   13  C7  LIG X 999      -0.580  -0.277  -0.110  1.00  0.00     0.032 C 
BRANCH  13  14
HETATM   14  C8  LIG X 999       0.036  -1.663   0.131  1.00  0.00     0.155 C 
BRANCH  14  15
HETATM   15  N2  LIG X 999       1.464  -1.568   0.419  1.00  0.00    -0.230 NA
HETATM   16  C9  LIG X 999       2.446  -1.266  -0.573  1.00  0.00     0.382 C 
HETATM   17  O2  LIG X 999       3.654  -1.161  -0.230  1.00  0.00    -0.236 OA
BRANCH  16  18
HETATM   18  O3  LIG X 999       2.065  -1.088  -1.908  1.00  0.00    -0.300 OA
BRANCH  18  19
HETATM   19  C10 LIG X 999       2.989  -0.825  -2.962  1.00  0.00     0.212 C 
BRANCH  19  20
HETATM   20  C11 LIG X 999       3.731  -2.098  -3.356  1.00  0.00     0.249 C 
HETATM   21  F1  LIG X 999       4.572  -1.836  -4.422  1.00  0.00    -0.253 F 
ENDBRANCH  19  20
ENDBRANCH  18  19
ENDBRANCH  16  18
ENDBRANCH  14  15
ENDBRANCH  13  14
ENDBRANCH  12  13
ENDBRANCH   1  12
TORSDOF 9
