REMARK  3 active torsions:
REMARK  status: ('A' for Active; 'I' for Inactive)
REMARK    1  A    between atoms: C2_2  and  N1_3 
REMARK    2  A    between atoms: C3_4  and  C4_5 
REMARK    3  A    between atoms: C7_9  and  O2_10 
ROOT
HETATM    1  N1  LIG X 999       0.564   1.326  -1.797  1.00  0.00    -0.034 N 
HETATM    2  C3  LIG X 999       0.351   0.922  -0.377  1.00  0.00     0.258 C 
HETATM    3  C5  LIG X 999      -0.552  -0.325  -0.498  1.00  0.00     0.028 C 
HETATM    4  C6  LIG X 999      -1.966   0.154  -0.882  1.00  0.00     0.041 C 
HETATM    5  C7  LIG X 999      -1.793   0.542  -2.359  1.00  0.00     0.149 C 
HETATM    6  C8  LIG X 999      -0.265   0.366  -2.575  1.00  0.00     0.223 C 
HETATM    7  C9  LIG X 999      -0.062  -0.922  -1.803  1.00  0.00     0.043 C 
HETATM    8  H4  LIG X 999       1.553   1.116  -2.077  1.00  0.00     0.287 HD
ENDROOT
BRANCH   1   9
HETATM    9  C2  LIG X 999       0.394   2.731  -2.142  1.00  0.00     0.191 C 
HETATM   10  C1  LIG X 999      -0.446   3.587  -1.537  1.00  0.00     0.037 C 
ENDBRANCH   1   9
BRANCH   2  11
HETATM   11  C4  LIG X 999       1.647   0.588   0.335  1.00  0.00     0.265 C 
HETATM   12  O1  LIG X 999       1.628   0.235   1.503  1.00  0.00    -0.305 OA
ENDBRANCH   2  11
BRANCH   5  13
HETATM   13  O2  LIG X 999      -2.271   1.829  -2.631  1.00  0.00    -0.393 OA
HETATM   14  H11 LIG X 999      -2.183   1.956  -3.611  1.00  0.00     0.210 HD
ENDBRANCH   5  13
TORSDOF 3
