REMARK  6 active torsions:
REMARK  status: ('A' for Active; 'I' for Inactive)
REMARK    1  A    between atoms: C2_2  and  C3_3 
REMARK    2  A    between atoms: C3_3  and  O1_4 
REMARK    3  A    between atoms: O1_4  and  C4_5 
REMARK    4  A    between atoms: C4_5  and  C5_6 
REMARK    5  A    between atoms: C4_5  and  C6_8 
REMARK    6  A    between atoms: C6_8  and  C7_9 
ROOT
HETATM    1  C7  LIG X 999      -1.415  -1.748   0.447  1.00  0.00    -0.014 A 
HETATM    2  C8  LIG X 999      -1.645  -1.020   1.611  1.00  0.00     0.017 A 
HETATM    3  C9  LIG X 999      -2.938  -0.491   1.684  1.00  0.00     0.031 A 
HETATM    4  C10 LIG X 999      -3.712  -0.798   0.574  1.00  0.00     0.085 A 
HETATM    5  C11 LIG X 999      -5.069  -0.380   0.362  1.00  0.00     0.107 C 
HETATM    6  N1  LIG X 999      -6.163  -0.043   0.192  1.00  0.00    -0.191 NA
HETATM    7  S1  LIG X 999      -2.806  -1.716  -0.503  1.00  0.00    -0.084 SA
ENDROOT
BRANCH   1   8
HETATM    8  C6  LIG X 999      -0.107  -2.353   0.040  1.00  0.00     0.080 C 
BRANCH   8   9
HETATM    9  C4  LIG X 999       0.660  -1.415  -0.906  1.00  0.00     0.154 C 
BRANCH   9  10
HETATM   10  O1  LIG X 999       0.957  -0.204  -0.227  1.00  0.00    -0.383 OA
BRANCH  10  11
HETATM   11  C3  LIG X 999       0.408   0.905  -0.908  1.00  0.00     0.168 C 
BRANCH  11  12
HETATM   12  C2  LIG X 999       0.708   2.188  -0.132  1.00  0.00     0.022 C 
HETATM   13  C1  LIG X 999       0.020   2.200   1.232  1.00  0.00     0.007 C 
ENDBRANCH  11  12
ENDBRANCH  10  11
ENDBRANCH   9  10
BRANCH   9  14
HETATM   14  C5  LIG X 999       1.972  -2.062  -1.357  1.00  0.00     0.254 C 
HETATM   15  F1  LIG X 999       2.811  -2.271  -0.275  1.00  0.00    -0.253 F 
ENDBRANCH   9  14
ENDBRANCH   8   9
ENDBRANCH   1   8
TORSDOF 6
