REMARK  5 active torsions:
REMARK  status: ('A' for Active; 'I' for Inactive)
REMARK    1  A    between atoms: C5_5  and  N1_6 
REMARK    2  A    between atoms: N1_6  and  N2_7 
REMARK    3  A    between atoms: N1_6  and  C6_8 
REMARK    4  A    between atoms: C6_8  and  C7_9 
REMARK    5  A    between atoms: C11_15  and  N4_16 
ROOT
HETATM    1  C1  LIG X 999       3.655  -1.645  -2.350  1.00  0.00     0.052 C 
HETATM    2  C2  LIG X 999       2.869  -0.705  -1.478  1.00  0.00    -0.018 A 
HETATM    3  C3  LIG X 999       3.534   0.319  -0.794  1.00  0.00     0.014 A 
HETATM    4  C4  LIG X 999       2.822   1.197   0.020  1.00  0.00     0.050 A 
HETATM    5  C5  LIG X 999       1.433   1.054   0.150  1.00  0.00     0.119 A 
HETATM    6  N3  LIG X 999       0.795   0.068  -0.546  1.00  0.00    -0.327 N 
HETATM    7  C11 LIG X 999       1.468  -0.800  -1.357  1.00  0.00     0.110 A 
HETATM    8  H13 LIG X 999      -0.239  -0.039  -0.458  1.00  0.00     0.169 HD
ENDROOT
BRANCH   5   9
HETATM    9  N1  LIG X 999       0.675   1.963   0.979  1.00  0.00    -0.296 N 
BRANCH   9  10
HETATM   10  N2  LIG X 999      -0.542   2.495   0.513  1.00  0.00    -0.246 NA
HETATM   11  H6  LIG X 999      -1.255   1.732   0.519  1.00  0.00     0.143 HD
HETATM   12  H7  LIG X 999      -0.403   2.812  -0.474  1.00  0.00     0.143 HD
ENDBRANCH   9  10
BRANCH   9  13
HETATM   13  C6  LIG X 999       1.228   2.485   2.233  1.00  0.00     0.185 C 
BRANCH  13  14
HETATM   14  C7  LIG X 999       0.200   2.424   3.321  1.00  0.00    -0.015 A 
HETATM   15  C8  LIG X 999      -0.202   1.298   4.006  1.00  0.00     0.035 A 
HETATM   16  C9  LIG X 999      -1.208   1.722   4.850  1.00  0.00     0.142 A 
HETATM   17  O1  LIG X 999      -1.416   3.009   4.685  1.00  0.00    -0.334 OA
HETATM   18  C10 LIG X 999      -0.591   3.462   3.769  1.00  0.00     0.150 A 
ENDBRANCH  13  14
ENDBRANCH   9  13
ENDBRANCH   5   9
BRANCH   7  19
HETATM   19  N4  LIG X 999       0.734  -1.810  -2.066  1.00  0.00    -0.376 N 
HETATM   20  C12 LIG X 999       0.435  -1.607  -3.484  1.00  0.00     0.150 C 
HETATM   21  C13 LIG X 999       0.011  -2.832  -1.312  1.00  0.00     0.150 C 
ENDBRANCH   7  19
TORSDOF 5
