REMARK  0 active torsions:
REMARK  status: ('A' for Active; 'I' for Inactive)
ROOT
HETATM    1  N1  LIG X 999       3.401  -0.128  -0.459  1.00  0.00    -0.191 NA
HETATM    2  C1  LIG X 999       2.512   0.014   0.268  1.00  0.00     0.107 C 
HETATM    3  C2  LIG X 999       1.409   0.190   1.171  1.00  0.00     0.086 A 
HETATM    4  C3  LIG X 999       0.069   0.037   0.845  1.00  0.00     0.032 A 
HETATM    5  C4  LIG X 999      -0.786   0.272   1.929  1.00  0.00     0.033 A 
HETATM    6  C5  LIG X 999      -0.108   0.606   3.093  1.00  0.00     0.075 A 
HETATM    7 CL1  LIG X 999      -0.849   0.966   4.638  1.00  0.00    -0.076 Cl
HETATM    8  S1  LIG X 999       1.547   0.613   2.792  1.00  0.00    -0.067 SA
ENDROOT
TORSDOF 0
