REMARK  3 active torsions:
REMARK  status: ('A' for Active; 'I' for Inactive)
REMARK    1  A    between atoms: N1_1  and  C1_2 
REMARK    2  A    between atoms: C3_4  and  O1_5 
REMARK    3  A    between atoms: C5_7  and  N2_8 
ROOT
HETATM    1  C1  LIG X 999       2.284   1.920  -2.389  1.00  0.00     0.030 A 
HETATM    2  C2  LIG X 999       3.490   1.544  -1.786  1.00  0.00     0.065 A 
HETATM    3  C3  LIG X 999       3.555   0.392  -0.998  1.00  0.00     0.070 A 
HETATM    4  C4  LIG X 999       2.407  -0.388  -0.805  1.00  0.00     0.066 A 
HETATM    5  C5  LIG X 999       1.185  -0.022  -1.399  1.00  0.00     0.035 A 
HETATM    6  C12 LIG X 999       1.137   1.137  -2.195  1.00  0.00     0.058 A 
ENDROOT
BRANCH   5   7
HETATM    7  N2  LIG X 999      -0.000  -0.823  -1.204  1.00  0.00    -0.372 N 
HETATM    8  C6  LIG X 999      -1.050  -0.962  -2.256  1.00  0.00     0.123 C 
HETATM    9  C7  LIG X 999      -2.058  -2.167  -2.001  1.00  0.00     0.022 C 
HETATM   10  C8  LIG X 999      -2.438  -2.457  -0.497  1.00  0.00     0.039 C 
HETATM   11  C9  LIG X 999      -1.593  -1.537   0.357  1.00  0.00     0.244 C 
HETATM   12  N3  LIG X 999      -1.274  -1.738   1.766  1.00  0.00     0.092 N 
HETATM   13  C11 LIG X 999      -0.166  -1.730  -0.078  1.00  0.00     0.145 C 
HETATM   14  C10 LIG X 999       0.131  -1.475   1.389  1.00  0.00     0.297 C 
HETATM   15  H13 LIG X 999      -1.629  -0.923   2.321  1.00  0.00     0.316 HD
ENDBRANCH   5   7
BRANCH   3  16
HETATM   16  O1  LIG X 999       4.765   0.030  -0.410  1.00  0.00    -0.361 OA
HETATM   17  H4  LIG X 999       4.847  -0.798   0.168  1.00  0.00     0.217 HD
ENDBRANCH   3  16
BRANCH   1  18
HETATM   18  N1  LIG X 999       2.221   3.099  -3.196  1.00  0.00    -0.399 N 
HETATM   19  H1  LIG X 999       1.327   3.390  -3.650  1.00  0.00     0.156 HD
HETATM   20  H2  LIG X 999       3.069   3.690  -3.346  1.00  0.00     0.156 HD
ENDBRANCH   1  18
TORSDOF 3
