REMARK  2 active torsions:
REMARK  status: ('A' for Active; 'I' for Inactive)
REMARK    1  A    between atoms: C2_2  and  N1_3 
REMARK    2  A    between atoms: C9_11  and  C10_12 
ROOT
HETATM    1  N1  LIG X 999       0.848   0.043  -0.616  1.00  0.00    -0.035 N 
HETATM    2  C3  LIG X 999      -0.579  -0.013  -1.024  1.00  0.00     0.212 C 
HETATM    3  C4  LIG X 999      -1.117   1.294  -0.484  1.00  0.00     0.042 C 
HETATM    4  C5  LIG X 999      -0.716   0.975   0.940  1.00  0.00     0.027 C 
HETATM    5  C6  LIG X 999      -1.510  -0.316   1.187  1.00  0.00     0.028 C 
HETATM    6  C7  LIG X 999      -1.380  -1.043  -0.166  1.00  0.00     0.124 C 
HETATM    7  C8  LIG X 999      -2.697  -1.327  -0.765  1.00  0.00     0.066 C 
HETATM    8  N2  LIG X 999      -3.730  -1.550  -1.235  1.00  0.00    -0.197 NA
HETATM    9  C9  LIG X 999       0.774   0.585   0.769  1.00  0.00     0.258 C 
HETATM   10  H4  LIG X 999       1.336   0.712  -1.261  1.00  0.00     0.287 HD
ENDROOT
BRANCH   1  11
HETATM   11  C2  LIG X 999       1.540  -1.227  -0.720  1.00  0.00     0.191 C 
HETATM   12  C1  LIG X 999       2.829  -1.345  -0.381  1.00  0.00     0.037 C 
ENDBRANCH   1  11
BRANCH   9  13
HETATM   13  C10 LIG X 999       1.698   1.765   0.979  1.00  0.00     0.265 C 
HETATM   14  O1  LIG X 999       1.598   2.777   0.303  1.00  0.00    -0.305 OA
ENDBRANCH   9  13
TORSDOF 2
