REMARK  3 active torsions:
REMARK  status: ('A' for Active; 'I' for Inactive)
REMARK    1  A    between atoms: N1_1  and  N2_2 
REMARK    2  A    between atoms: N2_2  and  C1_3 
REMARK    3  A    between atoms: C1_3  and  C2_4 
ROOT
HETATM    1  C1  LIG X 999      -0.843   0.062  -0.905  1.00  0.00     0.145 C 
ENDROOT
BRANCH   1   2
HETATM    2  N2  LIG X 999      -1.734   0.474   0.183  1.00  0.00    -0.259 NA
HETATM    3  H3  LIG X 999      -1.303   1.268   0.717  1.00  0.00     0.140 HD
BRANCH   2   4
HETATM    4  N1  LIG X 999      -1.938  -0.618   1.049  1.00  0.00    -0.271 NA
HETATM    5  H1  LIG X 999      -1.184  -0.620   1.776  1.00  0.00     0.137 HD
HETATM    6  H2  LIG X 999      -2.839  -0.445   1.550  1.00  0.00     0.137 HD
ENDBRANCH   2   4
ENDBRANCH   1   2
BRANCH   1   7
HETATM    7  C2  LIG X 999       0.562  -0.160  -0.421  1.00  0.00    -0.020 A 
HETATM    8  C3  LIG X 999       1.506   0.811  -0.163  1.00  0.00     0.035 A 
HETATM    9  C4  LIG X 999       2.610   0.134   0.313  1.00  0.00     0.142 A 
HETATM   10  O1  LIG X 999       2.359  -1.157   0.351  1.00  0.00    -0.334 OA
HETATM   11  C5  LIG X 999       1.136  -1.367  -0.078  1.00  0.00     0.149 A 
ENDBRANCH   1   7
TORSDOF 3
