REMARK  4 active torsions:
REMARK  status: ('A' for Active; 'I' for Inactive)
REMARK    1  A    between atoms: C2_2  and  N1_3 
REMARK    2  A    between atoms: C3_4  and  C4_5 
REMARK    3  A    between atoms: C7_9  and  O2_10 
REMARK    4  A    between atoms: O2_10  and  C8_11 
REMARK       I    between atoms: C8_11  and  N2_13 
REMARK       I    between atoms: N2_13  and  C9_14 
ROOT
HETATM    1  N1  LIG X 999      -1.896   0.475  -0.559  1.00  0.00    -0.372 N 
HETATM    2  C3  LIG X 999      -2.363  -0.863  -0.193  1.00  0.00     0.150 C 
HETATM    3  C5  LIG X 999      -1.071  -1.697  -0.340  1.00  0.00     0.019 C 
HETATM    4  C6  LIG X 999      -0.111  -1.293   0.798  1.00  0.00     0.042 C 
HETATM    5  C7  LIG X 999       0.299   0.149   0.409  1.00  0.00     0.157 C 
HETATM    6  C10 LIG X 999      -0.475   0.359  -0.904  1.00  0.00     0.114 C 
HETATM    7  C11 LIG X 999      -0.409  -1.019  -1.523  1.00  0.00     0.035 C 
ENDROOT
BRANCH   5   8
HETATM    8  O2  LIG X 999       1.704   0.249   0.173  1.00  0.00    -0.296 OA
BRANCH   8   9
HETATM    9  C8  LIG X 999       2.654   0.223   1.200  1.00  0.00     0.368 C 
HETATM   10  O3  LIG X 999       2.287   0.123   2.403  1.00  0.00    -0.238 OA
HETATM   11  N2  LIG X 999       4.045   0.311   0.863  1.00  0.00    -0.259 N 
HETATM   12  C9  LIG X 999       5.110   0.292   1.823  1.00  0.00     0.323 C 
HETATM   13  H10 LIG X 999       4.296   0.394  -0.147  1.00  0.00     0.175 HD
HETATM   14  O4  LIG X 999       4.874   0.193   3.057  1.00  0.00    -0.254 OA
HETATM   15 CL1  LIG X 999       6.771   0.408   1.279  1.00  0.00    -0.020 Cl
ENDBRANCH   8   9
ENDBRANCH   5   8
BRANCH   1  16
HETATM   16  C2  LIG X 999      -2.591   1.675  -0.177  1.00  0.00     0.076 C 
HETATM   17  C1  LIG X 999      -2.046   2.885  -0.281  1.00  0.00     0.029 C 
ENDBRANCH   1  16
BRANCH   2  18
HETATM   18  C4  LIG X 999      -3.450  -1.353  -1.117  1.00  0.00     0.256 C 
HETATM   19  O1  LIG X 999      -3.949  -0.618  -1.955  1.00  0.00    -0.305 OA
ENDBRANCH   2  18
TORSDOF 4
