REMARK  3 active torsions:
REMARK  status: ('A' for Active; 'I' for Inactive)
REMARK    1  A    between atoms: C2_2  and  N1_3 
REMARK    2  A    between atoms: C3_4  and  C4_5 
REMARK    3  A    between atoms: C7_9  and  O2_10 
ROOT
HETATM    1  N1  LIG X 999      -0.087  -1.134  -0.670  1.00  0.00    -0.372 N 
HETATM    2  C3  LIG X 999      -1.088  -0.480   0.171  1.00  0.00     0.150 C 
HETATM    3  C5  LIG X 999      -1.132   0.938  -0.445  1.00  0.00     0.019 C 
HETATM    4  C6  LIG X 999       0.187   1.654  -0.085  1.00  0.00     0.041 C 
HETATM    5  C7  LIG X 999       1.226   0.908  -0.961  1.00  0.00     0.141 C 
HETATM    6  C8  LIG X 999       0.361  -0.157  -1.668  1.00  0.00     0.113 C 
HETATM    7  C9  LIG X 999      -0.906   0.632  -1.916  1.00  0.00     0.035 C 
ENDROOT
BRANCH   1   8
HETATM    8  C2  LIG X 999       0.522  -2.396  -0.344  1.00  0.00     0.076 C 
HETATM    9  C1  LIG X 999       1.577  -2.875  -1.000  1.00  0.00     0.029 C 
ENDBRANCH   1   8
BRANCH   2  10
HETATM   10  C4  LIG X 999      -2.416  -1.181   0.071  1.00  0.00     0.256 C 
HETATM   11  O1  LIG X 999      -3.370  -0.784   0.720  1.00  0.00    -0.305 OA
ENDBRANCH   2  10
BRANCH   5  12
HETATM   12  O2  LIG X 999       2.285   0.347  -0.222  1.00  0.00    -0.393 OA
HETATM   13  H10 LIG X 999       1.910  -0.100   0.580  1.00  0.00     0.210 HD
ENDBRANCH   5  12
TORSDOF 3
