REMARK  1 active torsions:
REMARK  status: ('A' for Active; 'I' for Inactive)
REMARK    1  A    between atoms: N1_1  and  C1_2 
ROOT
HETATM    1  C1  LIG X 999      -0.874  -0.299   0.018  1.00  0.00     0.030 A 
HETATM    2  C2  LIG X 999      -0.595   1.035   0.352  1.00  0.00     0.069 A 
HETATM    3  C3  LIG X 999       0.725   1.501   0.345  1.00  0.00     0.111 A 
HETATM    4  O1  LIG X 999       0.996   2.823   0.676  1.00  0.00    -0.192 OA
HETATM    5  C4  LIG X 999       1.770   0.637   0.004  1.00  0.00     0.064 A 
HETATM    6  C5  LIG X 999       1.498  -0.695  -0.330  1.00  0.00     0.038 A 
HETATM    7 CL1  LIG X 999       2.810  -1.778  -0.756  1.00  0.00    -0.084 Cl
HETATM    8  C6  LIG X 999       0.179  -1.162  -0.323  1.00  0.00     0.052 A 
ENDROOT
BRANCH   1   9
HETATM    9  N1  LIG X 999      -2.222  -0.776   0.026  1.00  0.00    -0.399 N 
HETATM   10  H1  LIG X 999      -2.439  -1.767  -0.221  1.00  0.00     0.156 HD
HETATM   11  H2  LIG X 999      -3.012  -0.141   0.278  1.00  0.00     0.156 HD
ENDBRANCH   1   9
TORSDOF 1
