REMARK  1 active torsions:
REMARK  status: ('A' for Active; 'I' for Inactive)
REMARK    1  A    between atoms: C1_2  and  C2_3 
ROOT
HETATM    1  C2  LIG X 999      -0.281   1.237  -1.097  1.00  0.00     0.002 A 
HETATM    2  C3  LIG X 999      -0.590   0.334  -0.066  1.00  0.00     0.016 A 
HETATM    3  C4  LIG X 999      -1.671  -0.543  -0.197  1.00  0.00     0.024 A 
HETATM    4  C5  LIG X 999      -2.452  -0.527  -1.357  1.00  0.00     0.034 A 
HETATM    5 CL1  LIG X 999      -3.807  -1.629  -1.518  1.00  0.00    -0.084 Cl
HETATM    6  C6  LIG X 999      -2.151   0.369  -2.387  1.00  0.00     0.024 A 
HETATM    7  C7  LIG X 999      -1.071   1.248  -2.260  1.00  0.00     0.016 A 
ENDROOT
BRANCH   1   8
HETATM    8  C1  LIG X 999       0.862   2.155  -0.942  1.00  0.00     0.269 C 
HETATM    9  O1  LIG X 999       1.163   2.977  -1.849  1.00  0.00    -0.301 OA
ENDBRANCH   1   8
TORSDOF 1
