REMARK  3 active torsions:
REMARK  status: ('A' for Active; 'I' for Inactive)
REMARK    1  A    between atoms: C1_2  and  C2_3 
REMARK    2  A    between atoms: C5_6  and  C6_7 
REMARK    3  A    between atoms: C8_9  and  N1_10 
ROOT
HETATM    1  C6  LIG X 999       0.369   0.828  -1.499  1.00  0.00     0.018 A 
HETATM    2  C7  LIG X 999       1.275   0.151  -0.664  1.00  0.00     0.065 A 
HETATM    3  C8  LIG X 999       2.652   0.189  -0.946  1.00  0.00     0.126 A 
HETATM    4  N2  LIG X 999       3.088   0.880  -2.035  1.00  0.00    -0.240 NA
HETATM    5  C13 LIG X 999       2.237   1.540  -2.862  1.00  0.00     0.162 A 
HETATM    6  C14 LIG X 999       0.864   1.527  -2.613  1.00  0.00     0.145 A 
HETATM    7  F1  LIG X 999       0.028   2.160  -3.474  1.00  0.00    -0.204 F 
ENDROOT
BRANCH   1   8
HETATM    8  C5  LIG X 999      -1.084   0.792  -1.201  1.00  0.00    -0.023 A 
HETATM    9  C4  LIG X 999      -1.847   1.972  -1.220  1.00  0.00     0.013 A 
HETATM   10  C3  LIG X 999      -3.215   1.936  -0.932  1.00  0.00     0.015 A 
HETATM   11  C2  LIG X 999      -3.842   0.722  -0.617  1.00  0.00     0.002 A 
HETATM   12  C16 LIG X 999      -3.081  -0.458  -0.592  1.00  0.00     0.015 A 
HETATM   13  C15 LIG X 999      -1.713  -0.422  -0.879  1.00  0.00     0.013 A 
BRANCH  11  14
HETATM   14  C1  LIG X 999      -5.285   0.705  -0.316  1.00  0.00     0.269 C 
HETATM   15  O1  LIG X 999      -5.877  -0.370  -0.028  1.00  0.00    -0.301 OA
ENDBRANCH  11  14
ENDBRANCH   1   8
BRANCH   3  16
HETATM   16  N1  LIG X 999       3.608  -0.490  -0.107  1.00  0.00    -0.366 N 
HETATM   17  C9  LIG X 999       5.027  -0.542  -0.416  1.00  0.00     0.124 C 
HETATM   18  C10 LIG X 999       5.639  -1.483   0.611  1.00  0.00     0.021 C 
HETATM   19  C11 LIG X 999       4.612  -1.603   1.733  1.00  0.00     0.021 C 
HETATM   20  C12 LIG X 999       3.279  -1.188   1.125  1.00  0.00     0.124 C 
ENDBRANCH   3  16
TORSDOF 3
