REMARK  2 active torsions:
REMARK  status: ('A' for Active; 'I' for Inactive)
REMARK    1  A    between atoms: N1_1  and  C1_2 
REMARK    2  A    between atoms: C3_4  and  O1_5 
ROOT
HETATM    1  C1  LIG X 999      -1.524  -0.019  -0.731  1.00  0.00     0.029 A 
HETATM    2  C2  LIG X 999      -0.644  -0.828   0.004  1.00  0.00     0.065 A 
HETATM    3  C3  LIG X 999      -0.250  -0.450   1.296  1.00  0.00     0.069 A 
HETATM    4  C4  LIG X 999      -0.737   0.738   1.852  1.00  0.00     0.060 A 
HETATM    5  C5  LIG X 999      -1.614   1.547   1.123  1.00  0.00     0.038 A 
HETATM    6 CL1  LIG X 999      -2.222   3.036   1.825  1.00  0.00    -0.084 Cl
HETATM    7  C6  LIG X 999      -2.007   1.170  -0.166  1.00  0.00     0.052 A 
ENDROOT
BRANCH   1   8
HETATM    8  N1  LIG X 999      -1.925  -0.405  -2.048  1.00  0.00    -0.399 N 
HETATM    9  H1  LIG X 999      -2.580   0.191  -2.603  1.00  0.00     0.156 HD
HETATM   10  H2  LIG X 999      -1.571  -1.288  -2.478  1.00  0.00     0.156 HD
ENDBRANCH   1   8
BRANCH   3  11
HETATM   11  O1  LIG X 999       0.623  -1.247   2.033  1.00  0.00    -0.361 OA
HETATM   12  H4  LIG X 999       0.993  -2.113   1.659  1.00  0.00     0.217 HD
ENDBRANCH   3  11
TORSDOF 2
