REMARK  2 active torsions:
REMARK  status: ('A' for Active; 'I' for Inactive)
REMARK    1  A    between atoms: N1_1  and  C1_2 
REMARK    2  A    between atoms: C3_4  and  O1_5 
ROOT
HETATM    1  C1  LIG X 999      -1.239   1.140  -0.059  1.00  0.00     0.029 A 
HETATM    2  C2  LIG X 999      -1.316   0.551   1.212  1.00  0.00     0.065 A 
HETATM    3  C3  LIG X 999      -0.212  -0.132   1.742  1.00  0.00     0.069 A 
HETATM    4  C4  LIG X 999       0.970  -0.226   0.999  1.00  0.00     0.060 A 
HETATM    5  C5  LIG X 999       1.052   0.360  -0.268  1.00  0.00     0.038 A 
HETATM    6 CL1  LIG X 999       2.536   0.239  -1.196  1.00  0.00    -0.084 Cl
HETATM    7  C6  LIG X 999      -0.050   1.042  -0.797  1.00  0.00     0.052 A 
ENDROOT
BRANCH   1   8
HETATM    8  N1  LIG X 999      -2.365   1.837  -0.599  1.00  0.00    -0.399 N 
HETATM    9  H1  LIG X 999      -2.317   2.279  -1.544  1.00  0.00     0.156 HD
HETATM   10  H2  LIG X 999      -3.254   1.916  -0.057  1.00  0.00     0.156 HD
ENDBRANCH   1   8
BRANCH   3  11
HETATM   11  O1  LIG X 999      -0.280  -0.720   3.003  1.00  0.00    -0.361 OA
HETATM   12  H4  LIG X 999      -1.121  -0.670   3.566  1.00  0.00     0.217 HD
ENDBRANCH   3  11
TORSDOF 2
