REMARK  3 active torsions:
REMARK  status: ('A' for Active; 'I' for Inactive)
REMARK    1  A    between atoms: C2_2  and  N1_3 
REMARK    2  A    between atoms: C3_4  and  C4_5 
REMARK    3  A    between atoms: C7_9  and  O2_10 
ROOT
HETATM    1  N1  LIG X 999      -0.527   0.575   0.418  1.00  0.00    -0.034 N 
HETATM    2  C3  LIG X 999      -1.006  -0.106  -0.822  1.00  0.00     0.258 C 
HETATM    3  C5  LIG X 999       0.272  -0.757  -1.395  1.00  0.00     0.028 C 
HETATM    4  C6  LIG X 999       1.207   0.363  -1.890  1.00  0.00     0.041 C 
HETATM    5  C7  LIG X 999       1.719   0.981  -0.573  1.00  0.00     0.149 C 
HETATM    6  C8  LIG X 999       0.913   0.192   0.488  1.00  0.00     0.223 C 
HETATM    7  C9  LIG X 999       0.962  -1.194  -0.129  1.00  0.00     0.043 C 
HETATM    8  H4  LIG X 999      -0.611   1.608   0.274  1.00  0.00     0.287 HD
ENDROOT
BRANCH   1   9
HETATM    9  C2  LIG X 999      -1.304   0.313   1.625  1.00  0.00     0.191 C 
HETATM   10  C1  LIG X 999      -1.022  -0.635   2.534  1.00  0.00     0.037 C 
ENDBRANCH   1   9
BRANCH   2  11
HETATM   11  C4  LIG X 999      -2.097  -1.140  -0.611  1.00  0.00     0.265 C 
HETATM   12  O1  LIG X 999      -3.240  -0.786  -0.366  1.00  0.00    -0.305 OA
ENDBRANCH   2  11
BRANCH   5  13
HETATM   13  O2  LIG X 999       1.480   2.362  -0.507  1.00  0.00    -0.393 OA
HETATM   14  H11 LIG X 999       2.117   2.786  -1.140  1.00  0.00     0.210 HD
ENDBRANCH   5  13
TORSDOF 3
