REMARK  9 active torsions:
REMARK  status: ('A' for Active; 'I' for Inactive)
REMARK    1  A    between atoms: C2_2  and  O1_3 
REMARK    2  A    between atoms: O1_3  and  C3_4 
REMARK    3  A    between atoms: C3_4  and  C4_5 
REMARK    4  A    between atoms: C4_5  and  C5_6 
REMARK    5  A    between atoms: C5_6  and  N1_7 
REMARK    6  A    between atoms: N1_7  and  C6_8 
REMARK    7  A    between atoms: C6_8  and  O2_10 
REMARK    8  A    between atoms: O2_10  and  C7_11 
REMARK    9  A    between atoms: C9_13  and  N2_14 
ROOT
HETATM    1  O2  LIG X 999       2.061  -1.937   0.919  1.00  0.00    -0.284 OA
ENDROOT
BRANCH   1   2
HETATM    2  C6  LIG X 999       0.762  -2.459   0.950  1.00  0.00     0.215 C 
HETATM    3  S1  LIG X 999       0.542  -4.038   0.590  1.00  0.00    -0.033 SA
BRANCH   2   4
HETATM    4  N1  LIG X 999      -0.365  -1.653   1.322  1.00  0.00    -0.361 N 
HETATM    5  H12 LIG X 999      -1.315  -2.013   1.074  1.00  0.00     0.162 HD
BRANCH   4   6
HETATM    6  C5  LIG X 999      -0.273  -0.666   2.400  1.00  0.00     0.124 C 
BRANCH   6   7
HETATM    7  C4  LIG X 999      -1.457   0.311   2.372  1.00  0.00     0.046 C 
BRANCH   7   8
HETATM    8  C3  LIG X 999      -1.387   1.300   1.200  1.00  0.00     0.169 C 
BRANCH   8   9
HETATM    9  O1  LIG X 999      -1.446   0.627  -0.043  1.00  0.00    -0.391 OA
BRANCH   9  10
HETATM   10  C2  LIG X 999      -2.772   0.571  -0.521  1.00  0.00     0.163 C 
HETATM   11  C1  LIG X 999      -2.813  -0.305  -1.763  1.00  0.00     0.033 C 
ENDBRANCH   9  10
ENDBRANCH   8   9
ENDBRANCH   7   8
ENDBRANCH   6   7
ENDBRANCH   4   6
ENDBRANCH   2   4
ENDBRANCH   1   2
BRANCH   1  12
HETATM   12  C7  LIG X 999       2.389  -0.672   0.414  1.00  0.00     0.082 A 
HETATM   13  C8  LIG X 999       1.602  -0.040  -0.565  1.00  0.00     0.066 A 
HETATM   14  C9  LIG X 999       1.943   1.236  -1.035  1.00  0.00     0.029 A 
HETATM   15  C10 LIG X 999       3.089   1.873  -0.538  1.00  0.00     0.052 A 
HETATM   16  C11 LIG X 999       3.890   1.236   0.415  1.00  0.00     0.038 A 
HETATM   17 CL1  LIG X 999       5.327   2.033   1.027  1.00  0.00    -0.084 Cl
HETATM   18  C12 LIG X 999       3.542  -0.035   0.885  1.00  0.00     0.061 A 
BRANCH  14  19
HETATM   19  N2  LIG X 999       1.128   1.883  -2.016  1.00  0.00    -0.399 N 
HETATM   20  H14 LIG X 999       1.373   2.834  -2.372  1.00  0.00     0.156 HD
HETATM   21  H15 LIG X 999       0.270   1.418  -2.389  1.00  0.00     0.156 HD
ENDBRANCH  14  19
ENDBRANCH   1  12
TORSDOF 9
