REMARK  2 active torsions:
REMARK  status: ('A' for Active; 'I' for Inactive)
REMARK    1  A    between atoms: N1_1  and  C1_2 
REMARK    2  A    between atoms: C3_4  and  O1_5 
ROOT
HETATM    1  C1  LIG X 999       1.091  -0.264   0.008  1.00  0.00     0.029 A 
HETATM    2  C2  LIG X 999       0.044  -0.985  -0.584  1.00  0.00     0.065 A 
HETATM    3  C3  LIG X 999      -1.271  -0.510  -0.510  1.00  0.00     0.069 A 
HETATM    4  C4  LIG X 999      -1.541   0.692   0.159  1.00  0.00     0.060 A 
HETATM    5  C5  LIG X 999      -0.499   1.415   0.750  1.00  0.00     0.038 A 
HETATM    6 CL1  LIG X 999      -0.840   2.919   1.586  1.00  0.00    -0.084 Cl
HETATM    7  C6  LIG X 999       0.815   0.938   0.675  1.00  0.00     0.052 A 
ENDROOT
BRANCH   1   8
HETATM    8  N1  LIG X 999       2.434  -0.751  -0.069  1.00  0.00    -0.399 N 
HETATM    9  H1  LIG X 999       3.221  -0.222   0.368  1.00  0.00     0.156 HD
HETATM   10  H2  LIG X 999       2.650  -1.645  -0.564  1.00  0.00     0.156 HD
ENDBRANCH   1   8
BRANCH   3  11
HETATM   11  O1  LIG X 999      -2.299  -1.239  -1.102  1.00  0.00    -0.361 OA
HETATM   12  H4  LIG X 999      -3.261  -0.923  -1.067  1.00  0.00     0.217 HD
ENDBRANCH   3  11
TORSDOF 2
