REMARK  3 active torsions:
REMARK  status: ('A' for Active; 'I' for Inactive)
REMARK    1  A    between atoms: N1_1  and  N2_2 
REMARK    2  A    between atoms: N2_2  and  C1_3 
REMARK    3  A    between atoms: C1_3  and  C2_4 
ROOT
HETATM    1  C1  LIG X 999       0.765  -0.497   0.970  1.00  0.00     0.145 C 
ENDROOT
BRANCH   1   2
HETATM    2  N2  LIG X 999       1.821   0.153   0.177  1.00  0.00    -0.259 NA
HETATM    3  H3  LIG X 999       1.651   1.186   0.133  1.00  0.00     0.140 HD
BRANCH   2   4
HETATM    4  N1  LIG X 999       1.844  -0.343  -1.145  1.00  0.00    -0.271 NA
HETATM    5  H1  LIG X 999       2.045  -1.369  -1.117  1.00  0.00     0.137 HD
HETATM    6  H2  LIG X 999       0.913  -0.190  -1.599  1.00  0.00     0.137 HD
ENDBRANCH   2   4
ENDBRANCH   1   2
BRANCH   1   7
HETATM    7  C2  LIG X 999      -0.606  -0.009   0.595  1.00  0.00    -0.020 A 
HETATM    8  C3  LIG X 999      -1.538  -0.675  -0.172  1.00  0.00     0.035 A 
HETATM    9  C4  LIG X 999      -2.614   0.182  -0.270  1.00  0.00     0.142 A 
HETATM   10  O1  LIG X 999      -2.360   1.294   0.384  1.00  0.00    -0.334 OA
HETATM   11  C5  LIG X 999      -1.161   1.214   0.913  1.00  0.00     0.149 A 
ENDBRANCH   1   7
TORSDOF 3
