REMARK  5 active torsions:
REMARK  status: ('A' for Active; 'I' for Inactive)
REMARK    1  A    between atoms: N1_1  and  N2_2 
REMARK    2  A    between atoms: N2_2  and  C1_3 
REMARK    3  A    between atoms: N2_2  and  C6_9 
REMARK    4  A    between atoms: C1_3  and  C2_4 
REMARK    5  A    between atoms: C9_12  and  C10_13 
ROOT
HETATM    1  C6  LIG X 999       1.166   0.677  -0.632  1.00  0.00     0.139 A 
HETATM    2  C7  LIG X 999       0.681   0.045   0.527  1.00  0.00     0.052 A 
HETATM    3  C8  LIG X 999      -0.695  -0.022   0.754  1.00  0.00     0.019 A 
HETATM    4  C9  LIG X 999      -1.597   0.527  -0.170  1.00  0.00     0.010 A 
HETATM    5  C15 LIG X 999      -1.072   1.158  -1.311  1.00  0.00     0.132 A 
HETATM    6  N4  LIG X 999       0.271   1.213  -1.508  1.00  0.00    -0.241 NA
ENDROOT
BRANCH   1   7
HETATM    7  N2  LIG X 999       2.580   0.773  -0.926  1.00  0.00    -0.295 N 
BRANCH   7   8
HETATM    8  N1  LIG X 999       2.961   1.323  -2.169  1.00  0.00    -0.246 NA
HETATM    9  H1  LIG X 999       4.002   1.369  -2.238  1.00  0.00     0.143 HD
HETATM   10  H2  LIG X 999       2.649   0.657  -2.912  1.00  0.00     0.143 HD
ENDBRANCH   7   8
BRANCH   7  11
HETATM   11  C1  LIG X 999       3.609   0.335   0.032  1.00  0.00     0.185 C 
BRANCH  11  12
HETATM   12  C2  LIG X 999       3.754  -1.156   0.002  1.00  0.00    -0.015 A 
HETATM   13  C3  LIG X 999       3.763  -2.005   1.088  1.00  0.00     0.035 A 
HETATM   14  C4  LIG X 999       3.968  -3.266   0.568  1.00  0.00     0.142 A 
HETATM   15  O1  LIG X 999       4.087  -3.196  -0.739  1.00  0.00    -0.334 OA
HETATM   16  C5  LIG X 999       3.968  -1.942  -1.112  1.00  0.00     0.150 A 
ENDBRANCH  11  12
ENDBRANCH   7  11
ENDBRANCH   1   7
BRANCH   4  17
HETATM   17  C10 LIG X 999      -3.059   0.456   0.082  1.00  0.00     0.068 A 
HETATM   18  C11 LIG X 999      -3.994   0.448  -0.971  1.00  0.00     0.032 A 
HETATM   19  C12 LIG X 999      -5.358   0.376  -0.680  1.00  0.00     0.004 A 
HETATM   20  C13 LIG X 999      -5.785   0.306   0.646  1.00  0.00     0.019 A 
HETATM   21  C14 LIG X 999      -4.835   0.305   1.668  1.00  0.00     0.117 A 
HETATM   22  N3  LIG X 999      -3.511   0.377   1.367  1.00  0.00    -0.260 NA
ENDBRANCH   4  17
TORSDOF 5
