REMARK  2 active torsions:
REMARK  status: ('A' for Active; 'I' for Inactive)
REMARK    1  A    between atoms: N3_3  and  C1_4 
REMARK    2  A    between atoms: C3_6  and  N4_7 
ROOT
HETATM    1  N1  LIG X 999      -2.242  -0.867   4.653  1.00  0.00     0.068 N 
HETATM    2  N2  LIG X 999      -1.236  -0.183   4.471  1.00  0.00    -0.162 NA
HETATM    3  N3  LIG X 999      -0.228   0.502   4.290  1.00  0.00    -0.072 NA
ENDROOT
BRANCH   3   4
HETATM    4  C1  LIG X 999       0.266   0.808   2.979  1.00  0.00     0.098 A 
HETATM    5  C2  LIG X 999      -0.375   0.340   1.816  1.00  0.00     0.063 A 
HETATM    6  C3  LIG X 999       0.136   0.658   0.549  1.00  0.00     0.030 A 
HETATM    7  C4  LIG X 999       1.291   1.446   0.444  1.00  0.00     0.069 A 
HETATM    8  C5  LIG X 999       1.930   1.912   1.597  1.00  0.00     0.111 A 
HETATM    9  O1  LIG X 999       3.074   2.693   1.488  1.00  0.00    -0.192 OA
HETATM   10  C6  LIG X 999       1.419   1.594   2.859  1.00  0.00     0.074 A 
BRANCH   6  11
HETATM   11  N4  LIG X 999      -0.517   0.181  -0.630  1.00  0.00    -0.399 N 
HETATM   12  H2  LIG X 999      -0.145   0.412  -1.579  1.00  0.00     0.156 HD
HETATM   13  H3  LIG X 999      -1.378  -0.407  -0.565  1.00  0.00     0.156 HD
ENDBRANCH   6  11
ENDBRANCH   3   4
TORSDOF 2
