REMARK  0 active torsions:
REMARK  status: ('A' for Active; 'I' for Inactive)
ROOT
HETATM    1  N1  LIG X 999       1.459  -3.830   0.377  1.00  0.00    -0.191 NA
HETATM    2  C1  LIG X 999       0.963  -2.788   0.305  1.00  0.00     0.107 C 
HETATM    3  C2  LIG X 999       0.348  -1.493   0.214  1.00  0.00     0.086 A 
HETATM    4  C3  LIG X 999       0.098  -0.799  -0.962  1.00  0.00     0.032 A 
HETATM    5  C4  LIG X 999      -0.513   0.441  -0.744  1.00  0.00     0.033 A 
HETATM    6  C5  LIG X 999      -0.737   0.708   0.600  1.00  0.00     0.075 A 
HETATM    7 CL1  LIG X 999      -1.480   2.158   1.242  1.00  0.00    -0.076 Cl
HETATM    8  S1  LIG X 999      -0.183  -0.583   1.524  1.00  0.00    -0.067 SA
ENDROOT
TORSDOF 0
