REMARK  1 active torsions:
REMARK  status: ('A' for Active; 'I' for Inactive)
REMARK    1  A    between atoms: C1_2  and  C2_3 
ROOT
HETATM    1  C2  LIG X 999       0.913  -0.130   0.084  1.00  0.00     0.002 A 
HETATM    2  C3  LIG X 999       0.404   1.144  -0.219  1.00  0.00     0.016 A 
HETATM    3  C4  LIG X 999      -0.974   1.342  -0.346  1.00  0.00     0.024 A 
HETATM    4  C5  LIG X 999      -1.856   0.271  -0.171  1.00  0.00     0.034 A 
HETATM    5 CL1  LIG X 999      -3.585   0.522  -0.331  1.00  0.00    -0.084 Cl
HETATM    6  C6  LIG X 999      -1.358  -1.000   0.130  1.00  0.00     0.024 A 
HETATM    7  C7  LIG X 999       0.020  -1.202   0.258  1.00  0.00     0.016 A 
ENDROOT
BRANCH   1   8
HETATM    8  C1  LIG X 999       2.369  -0.321   0.213  1.00  0.00     0.269 C 
HETATM    9  O1  LIG X 999       2.855  -1.451   0.484  1.00  0.00    -0.301 OA
ENDBRANCH   1   8
TORSDOF 1
