REMARK  2 active torsions:
REMARK  status: ('A' for Active; 'I' for Inactive)
REMARK    1  A    between atoms: N1_1  and  C1_2 
REMARK    2  A    between atoms: C6_9  and  C7_10 
ROOT
HETATM    1  C1  LIG X 999       1.871   1.145  -0.771  1.00  0.00     0.043 A 
HETATM    2  C2  LIG X 999       1.546   2.489  -1.017  1.00  0.00     0.054 A 
HETATM    3  C3  LIG X 999       0.556   3.131  -0.272  1.00  0.00     0.039 A 
HETATM    4 CL1  LIG X 999       0.153   4.805  -0.607  1.00  0.00    -0.084 Cl
HETATM    5  C4  LIG X 999      -0.124   2.436   0.727  1.00  0.00     0.065 A 
HETATM    6  C5  LIG X 999       0.198   1.105   1.005  1.00  0.00     0.124 A 
HETATM    7  O1  LIG X 999      -0.484   0.448   2.024  1.00  0.00    -0.191 OA
HETATM    8  C6  LIG X 999       1.210   0.447   0.275  1.00  0.00     0.064 A 
ENDROOT
BRANCH   1   9
HETATM    9  N1  LIG X 999       2.823   0.505  -1.632  1.00  0.00    -0.398 N 
HETATM   10  H1  LIG X 999       2.868  -0.531  -1.734  1.00  0.00     0.156 HD
HETATM   11  H2  LIG X 999       3.394   1.070  -2.299  1.00  0.00     0.156 HD
ENDBRANCH   1   9
BRANCH   8  12
HETATM   12  C7  LIG X 999       1.567  -0.939   0.659  1.00  0.00     0.275 C 
HETATM   13  O2  LIG X 999       2.734  -1.385   0.504  1.00  0.00    -0.301 OA
ENDBRANCH   8  12
TORSDOF 2
