REMARK  4 active torsions:
REMARK  status: ('A' for Active; 'I' for Inactive)
REMARK    1  A    between atoms: C4_6  and  N3_7 
REMARK    2  A    between atoms: C5_9  and  C6_10 
REMARK    3  A    between atoms: C6_10  and  O1_11 
REMARK    4  A    between atoms: C6_10  and  C7_12 
ROOT
HETATM    1  N1  LIG X 999       1.251  -1.680  -0.503  1.00  0.00    -0.191 NA
HETATM    2  C1  LIG X 999       0.230  -1.443  -0.012  1.00  0.00     0.103 C 
HETATM    3  C2  LIG X 999      -1.045  -1.150   0.598  1.00  0.00     0.088 A 
HETATM    4  C3  LIG X 999      -2.140  -1.954   0.277  1.00  0.00     0.161 A 
HETATM    5  N2  LIG X 999      -3.352  -1.710   0.834  1.00  0.00    -0.076 NA
HETATM    6  C4  LIG X 999      -3.528  -0.689   1.710  1.00  0.00     0.698 A 
HETATM    7  N4  LIG X 999      -2.478   0.112   2.042  1.00  0.00    -0.190 N 
HETATM    8  C5  LIG X 999      -1.236  -0.079   1.504  1.00  0.00     0.082 A 
HETATM    9  H4  LIG X 999      -2.637   0.889   2.722  1.00  0.00     0.184 HD
ENDROOT
BRANCH   8  10
HETATM   10  C6  LIG X 999      -0.102   0.851   1.931  1.00  0.00     0.203 C 
BRANCH  10  11
HETATM   11  O1  LIG X 999       0.766   0.197   2.824  1.00  0.00    -0.385 OA
HETATM   12  H6  LIG X 999       1.125  -0.610   2.371  1.00  0.00     0.211 HD
ENDBRANCH  10  11
BRANCH  10  13
HETATM   13  C7  LIG X 999       0.624   1.481   0.751  1.00  0.00    -0.024 A 
HETATM   14  C8  LIG X 999      -0.121   2.144  -0.242  1.00  0.00     0.012 A 
HETATM   15  C9  LIG X 999       0.520   2.747  -1.328  1.00  0.00     0.024 A 
HETATM   16  C10 LIG X 999       1.913   2.711  -1.429  1.00  0.00     0.034 A 
HETATM   17 CL1  LIG X 999       2.715   3.468  -2.792  1.00  0.00    -0.084 Cl
HETATM   18  C11 LIG X 999       2.666   2.076  -0.438  1.00  0.00     0.024 A 
HETATM   19  C12 LIG X 999       2.030   1.472   0.651  1.00  0.00     0.012 A 
ENDBRANCH  10  13
ENDBRANCH   8  10
BRANCH   6  20
HETATM   20  N3  LIG X 999      -4.817  -0.463   2.280  1.00  0.00    -0.233 N 
HETATM   21  H2  LIG X 999      -5.621  -1.078   2.026  1.00  0.00     0.174 HD
HETATM   22  H3  LIG X 999      -4.973   0.318   2.956  1.00  0.00     0.174 HD
ENDBRANCH   6  20
TORSDOF 4
