REMARK  2 active torsions:
REMARK  status: ('A' for Active; 'I' for Inactive)
REMARK    1  A    between atoms: C4_4  and  C5_5 
REMARK       I    between atoms: C5_5  and  N1_7 
REMARK    2  A    between atoms: C6_8  and  C7_9 
ROOT
HETATM    1  C5  LIG X 999       1.654  -1.542  -1.426  1.00  0.00     0.237 C 
HETATM    2  O1  LIG X 999       1.007  -2.025  -2.397  1.00  0.00    -0.272 OA
HETATM    3  N1  LIG X 999       1.519  -0.141  -1.110  1.00  0.00    -0.230 N 
HETATM    4  C6  LIG X 999       0.275   0.416  -0.909  1.00  0.00     0.150 A 
HETATM    5  N2  LIG X 999       0.156   1.754  -0.709  1.00  0.00    -0.227 NA
HETATM    6  C17 LIG X 999       1.232   2.577  -0.677  1.00  0.00     0.098 A 
HETATM    7  C18 LIG X 999       1.062   3.955  -0.462  1.00  0.00     0.087 A 
HETATM    8 CL1  LIG X 999      -0.561   4.611  -0.243  1.00  0.00    -0.080 Cl
HETATM    9  C19 LIG X 999       2.186   4.801  -0.422  1.00  0.00     0.079 A 
HETATM   10 CL2  LIG X 999       1.984   6.533  -0.152  1.00  0.00    -0.081 Cl
HETATM   11  C20 LIG X 999       3.472   4.262  -0.598  1.00  0.00     0.058 A 
HETATM   12 CL3  LIG X 999       4.904   5.284  -0.555  1.00  0.00    -0.082 Cl
HETATM   13  C21 LIG X 999       3.635   2.890  -0.812  1.00  0.00     0.045 A 
HETATM   14  C22 LIG X 999       2.518   2.039  -0.853  1.00  0.00     0.065 A 
HETATM   15  C23 LIG X 999       2.637   0.656  -1.079  1.00  0.00     0.268 A 
HETATM   16  O2  LIG X 999       3.780   0.155  -1.278  1.00  0.00    -0.267 OA
ENDROOT
BRANCH   4  17
HETATM   17  C7  LIG X 999      -0.964  -0.396  -0.868  1.00  0.00     0.011 A 
HETATM   18  C8  LIG X 999      -1.065  -1.507  -0.015  1.00  0.00     0.016 A 
HETATM   19  C9  LIG X 999      -2.243  -2.257   0.036  1.00  0.00     0.013 A 
HETATM   20  C10 LIG X 999      -3.343  -1.896  -0.755  1.00  0.00    -0.026 A 
HETATM   21  C11 LIG X 999      -4.531  -2.642  -0.711  1.00  0.00     0.012 A 
HETATM   22  C15 LIG X 999      -3.257  -0.764  -1.601  1.00  0.00    -0.025 A 
HETATM   23  C12 LIG X 999      -5.623  -2.269  -1.500  1.00  0.00     0.001 A 
HETATM   24  C13 LIG X 999      -5.538  -1.151  -2.335  1.00  0.00     0.001 A 
HETATM   25  C14 LIG X 999      -4.361  -0.400  -2.387  1.00  0.00     0.012 A 
HETATM   26  C16 LIG X 999      -2.070  -0.018  -1.645  1.00  0.00     0.027 A 
ENDBRANCH   4  17
BRANCH   1  27
HETATM   27  C4  LIG X 999       2.555  -2.417  -0.590  1.00  0.00     0.083 A 
HETATM   28  C2  LIG X 999       3.666  -3.100  -1.379  1.00  0.00    -0.005 A 
HETATM   29  C1  LIG X 999       4.981  -3.281  -0.622  1.00  0.00     0.011 C 
HETATM   30  C3  LIG X 999       2.496  -3.921  -0.849  1.00  0.00     0.019 A 
ENDBRANCH   1  27
TORSDOF 2
