REMARK  4 active torsions:
REMARK  status: ('A' for Active; 'I' for Inactive)
REMARK    1  A    between atoms: SI1_2  and  C4_5 
REMARK    2  A    between atoms: C4_5  and  C5_6 
REMARK    3  A    between atoms: N3_9  and  C6_10 
REMARK    4  A    between atoms: C16_20  and  C17_21 
ROOT
HETATM    1  C5  LIG X 999       0.652   1.662   1.911  1.00  0.00     0.084 A 
HETATM    2  N1  LIG X 999      -0.490   2.142   1.377  1.00  0.00    -0.162 NA
HETATM    3  N2  LIG X 999      -0.553   1.695   0.131  1.00  0.00     0.011 NA
HETATM    4  N3  LIG X 999       0.504   0.949  -0.150  1.00  0.00    -0.233 N 
HETATM    5  C16 LIG X 999       1.285   0.895   0.949  1.00  0.00     0.118 A 
ENDROOT
BRANCH   4   6
HETATM    6  C6  LIG X 999       0.677   0.259  -1.396  1.00  0.00     0.066 A 
HETATM    7  C7  LIG X 999       0.606  -1.141  -1.414  1.00  0.00     0.032 A 
HETATM    8  C8  LIG X 999       0.731  -1.844  -2.613  1.00  0.00     0.003 A 
HETATM    9  C9  LIG X 999       0.923  -1.158  -3.813  1.00  0.00     0.012 A 
HETATM   10  C10 LIG X 999       0.996   0.243  -3.821  1.00  0.00    -0.024 A 
HETATM   11  C11 LIG X 999       1.194   0.932  -5.028  1.00  0.00     0.012 A 
HETATM   12  C15 LIG X 999       0.874   0.966  -2.605  1.00  0.00     0.003 A 
HETATM   13  C12 LIG X 999       1.278   2.326  -5.035  1.00  0.00     0.001 A 
HETATM   14  C13 LIG X 999       1.170   3.042  -3.842  1.00  0.00     0.001 A 
HETATM   15  C14 LIG X 999       0.972   2.371  -2.633  1.00  0.00     0.014 A 
ENDBRANCH   4   6
BRANCH   5  16
HETATM   16  C17 LIG X 999       2.576   0.194   1.081  1.00  0.00     0.291 C 
HETATM   17  O1  LIG X 999       3.117  -0.365   0.091  1.00  0.00    -0.300 OA
ENDBRANCH   5  16
BRANCH   1  18
HETATM   18  C4  LIG X 999       1.071   1.890   3.329  1.00  0.00     0.069 C 
BRANCH  18  19
HETATM   19 SI1  LIG X 999       0.334   0.584   4.453  1.00  0.00     0.000 A 
HETATM   20  C1  LIG X 999       0.876   0.918   6.207  1.00  0.00     0.000 C 
HETATM   21  C2  LIG X 999       0.913  -1.119   3.949  1.00  0.00     0.000 C 
HETATM   22  C3  LIG X 999      -1.530   0.650   4.366  1.00  0.00     0.000 C 
ENDBRANCH  18  19
ENDBRANCH   1  18
TORSDOF 4
