REMARK  1 active torsions:
REMARK  status: ('A' for Active; 'I' for Inactive)
REMARK    1  A    between atoms: C2_4  and  C3_5 
ROOT
HETATM    1  O1  LIG X 999       1.014   2.035  -3.998  1.00  0.00    -0.265 OA
HETATM    2  C1  LIG X 999       1.475   1.280  -3.102  1.00  0.00     0.284 A 
HETATM    3  N1  LIG X 999       0.742   1.065  -1.979  1.00  0.00    -0.189 NA
HETATM    4  C2  LIG X 999       1.185   0.259  -0.975  1.00  0.00     0.164 A 
HETATM    5  N2  LIG X 999       2.395  -0.350  -1.095  1.00  0.00    -0.227 NA
HETATM    6  C13 LIG X 999       3.173  -0.173  -2.194  1.00  0.00     0.079 A 
HETATM    7  C14 LIG X 999       4.412  -0.817  -2.280  1.00  0.00     0.056 A 
HETATM    8  C15 LIG X 999       5.218  -0.640  -3.408  1.00  0.00     0.039 A 
HETATM    9 CL1  LIG X 999       6.771  -1.449  -3.512  1.00  0.00    -0.084 Cl
HETATM   10  C16 LIG X 999       4.787   0.182  -4.454  1.00  0.00     0.067 A 
HETATM   11  C17 LIG X 999       3.550   0.832  -4.381  1.00  0.00     0.136 A 
HETATM   12  F1  LIG X 999       3.166   1.622  -5.416  1.00  0.00    -0.205 F 
HETATM   13  C18 LIG X 999       2.730   0.659  -3.245  1.00  0.00     0.101 A 
ENDROOT
BRANCH   4  14
HETATM   14  C3  LIG X 999       0.356   0.048   0.238  1.00  0.00     0.013 A 
HETATM   15  C4  LIG X 999       0.812  -0.785   1.278  1.00  0.00     0.016 A 
HETATM   16  C5  LIG X 999       0.036  -0.988   2.422  1.00  0.00     0.013 A 
HETATM   17  C6  LIG X 999      -1.211  -0.363   2.551  1.00  0.00    -0.026 A 
HETATM   18  C7  LIG X 999      -1.996  -0.562   3.697  1.00  0.00     0.012 A 
HETATM   19  C11 LIG X 999      -1.682   0.476   1.514  1.00  0.00    -0.025 A 
HETATM   20  C8  LIG X 999      -3.239   0.068   3.813  1.00  0.00     0.001 A 
HETATM   21  C9  LIG X 999      -3.705   0.897   2.790  1.00  0.00     0.001 A 
HETATM   22  C10 LIG X 999      -2.932   1.103   1.643  1.00  0.00     0.012 A 
HETATM   23  C12 LIG X 999      -0.898   0.676   0.368  1.00  0.00     0.027 A 
ENDBRANCH   4  14
TORSDOF 1
