REMARK  1 active torsions:
REMARK  status: ('A' for Active; 'I' for Inactive)
REMARK    1  A    between atoms: N1_1  and  C1_2 
ROOT
HETATM    1  C1  LIG X 999       1.225  -2.221   2.784  1.00  0.00     0.036 A 
HETATM    2  C2  LIG X 999       1.744  -1.303   3.711  1.00  0.00     0.030 A 
HETATM    3  C3  LIG X 999       1.767   0.062   3.433  1.00  0.00     0.003 A 
HETATM    4  C4  LIG X 999       1.275   0.540   2.222  1.00  0.00     0.012 A 
HETATM    5  C5  LIG X 999       0.760  -0.348   1.269  1.00  0.00    -0.024 A 
HETATM    6  C6  LIG X 999       0.275   0.146   0.048  1.00  0.00     0.012 A 
HETATM    7  C7  LIG X 999      -0.228  -0.727  -0.916  1.00  0.00     0.001 A 
HETATM    8  C8  LIG X 999      -0.247  -2.099  -0.673  1.00  0.00     0.001 A 
HETATM    9  C9  LIG X 999       0.230  -2.610   0.537  1.00  0.00     0.014 A 
HETATM   10  C10 LIG X 999       0.734  -1.747   1.535  1.00  0.00     0.000 A 
ENDROOT
BRANCH   1  11
HETATM   11  N1  LIG X 999       1.205  -3.610   3.149  1.00  0.00    -0.398 N 
HETATM   12  H1  LIG X 999       0.700  -4.340   2.606  1.00  0.00     0.156 HD
HETATM   13  H2  LIG X 999       1.649  -3.924   4.040  1.00  0.00     0.156 HD
ENDBRANCH   1  11
TORSDOF 1
