REMARK  6 active torsions:
REMARK  status: ('A' for Active; 'I' for Inactive)
REMARK    1  A    between atoms: C2_2  and  C3_3 
REMARK    2  A    between atoms: C3_3  and  C4_4 
REMARK    3  A    between atoms: C4_4  and  O1_5 
REMARK    4  A    between atoms: C4_4  and  C5_6 
REMARK    5  A    between atoms: C5_6  and  C6_7 
REMARK       I    between atoms: C6_7  and  N1_9 
REMARK       I    between atoms: N1_9  and  C7_10 
REMARK    6  A    between atoms: C7_10  and  C8_12 
ROOT
HETATM    1  C6  LIG X 999      -0.105   1.124   2.437  1.00  0.00     0.226 C 
HETATM    2  O2  LIG X 999       0.611   2.157   2.539  1.00  0.00    -0.273 OA
HETATM    3  N1  LIG X 999       0.156   0.161   1.403  1.00  0.00    -0.293 N 
HETATM    4  C7  LIG X 999       0.994   0.432   0.266  1.00  0.00     0.258 C 
HETATM    5  O3  LIG X 999       1.332   1.619   0.005  1.00  0.00    -0.267 OA
HETATM    6  H12 LIG X 999      -0.350  -0.752   1.445  1.00  0.00     0.172 HD
ENDROOT
BRANCH   4   7
HETATM    7  C8  LIG X 999       1.435  -0.661  -0.633  1.00  0.00     0.033 A 
HETATM    8  C9  LIG X 999       1.792  -0.376  -1.963  1.00  0.00     0.018 A 
HETATM    9  C10 LIG X 999       2.213  -1.393  -2.823  1.00  0.00     0.013 A 
HETATM   10  C11 LIG X 999       2.292  -2.715  -2.367  1.00  0.00    -0.026 A 
HETATM   11  C12 LIG X 999       2.714  -3.744  -3.224  1.00  0.00     0.012 A 
HETATM   12  C16 LIG X 999       1.948  -3.015  -1.028  1.00  0.00    -0.025 A 
HETATM   13  C13 LIG X 999       2.795  -5.059  -2.754  1.00  0.00     0.001 A 
HETATM   14  C14 LIG X 999       2.458  -5.355  -1.431  1.00  0.00     0.001 A 
HETATM   15  C15 LIG X 999       2.036  -4.339  -0.568  1.00  0.00     0.012 A 
HETATM   16  C17 LIG X 999       1.526  -1.987  -0.170  1.00  0.00     0.029 A 
ENDBRANCH   4   7
BRANCH   1  17
HETATM   17  C5  LIG X 999      -1.190   0.874   3.452  1.00  0.00     0.135 C 
BRANCH  17  18
HETATM   18  C4  LIG X 999      -2.324   1.929   3.442  1.00  0.00     0.127 C 
BRANCH  18  19
HETATM   19  C3  LIG X 999      -3.423   1.674   2.385  1.00  0.00     0.032 C 
BRANCH  19  20
HETATM   20  C2  LIG X 999      -2.981   1.650   0.910  1.00  0.00    -0.002 C 
HETATM   21  C1  LIG X 999      -2.426   2.983   0.411  1.00  0.00     0.005 C 
ENDBRANCH  19  20
ENDBRANCH  18  19
BRANCH  18  22
HETATM   22  O1  LIG X 999      -1.824   3.237   3.331  1.00  0.00    -0.395 OA
HETATM   23  H9  LIG X 999      -1.360   3.442   4.185  1.00  0.00     0.210 HD
ENDBRANCH  18  22
ENDBRANCH  17  18
ENDBRANCH   1  17
TORSDOF 6
