REMARK  4 active torsions:
REMARK  status: ('A' for Active; 'I' for Inactive)
REMARK    1  A    between atoms: C2_2  and  C4_4 
REMARK    2  A    between atoms: C2_2  and  C17_22 
REMARK    3  A    between atoms: C5_5  and  C6_6 
REMARK    4  A    between atoms: C8_8  and  N1_9 
ROOT
HETATM    1  N1  LIG X 999       4.618   1.561   1.891  1.00  0.00    -0.070 NA
HETATM    2  N2  LIG X 999       5.122   2.345   2.695  1.00  0.00    -0.162 NA
HETATM    3  N3  LIG X 999       5.631   3.127   3.498  1.00  0.00     0.068 N 
ENDROOT
BRANCH   1   4
HETATM    4  C8  LIG X 999       3.225   1.589   1.551  1.00  0.00     0.124 A 
HETATM    5  C7  LIG X 999       2.720   0.653   0.616  1.00  0.00     0.058 A 
HETATM    6  C6  LIG X 999       1.347   0.643   0.248  1.00  0.00     0.031 A 
HETATM    7  C15 LIG X 999       0.464   1.584   0.826  1.00  0.00    -0.004 A 
HETATM    8  C10 LIG X 999       1.004   2.479   1.735  1.00  0.00     0.023 A 
HETATM    9  C14 LIG X 999      -0.922   1.698   0.564  1.00  0.00     0.014 A 
HETATM   10  C9  LIG X 999       2.319   2.511   2.105  1.00  0.00     0.104 A 
HETATM   11  C11 LIG X 999       0.288   3.439   2.373  1.00  0.00     0.047 A 
HETATM   12  N4  LIG X 999       2.563   3.551   3.062  1.00  0.00    -0.206 NA
HETATM   13  C16 LIG X 999       1.256   4.128   3.217  1.00  0.00     0.278 A 
HETATM   14  O1  LIG X 999       1.004   5.095   3.982  1.00  0.00    -0.265 OA
HETATM   15  C12 LIG X 999      -1.079   3.584   2.142  1.00  0.00     0.018 A 
HETATM   16  C13 LIG X 999      -1.686   2.697   1.222  1.00  0.00     0.002 A 
BRANCH   6  17
HETATM   17  C5  LIG X 999       0.881  -0.329  -0.709  1.00  0.00    -0.065 C 
HETATM   18  C4  LIG X 999       0.485  -1.139  -1.509  1.00  0.00    -0.084 C 
BRANCH  18  19
HETATM   19  C2  LIG X 999      -0.004  -2.129  -2.489  1.00  0.00     0.079 C 
HETATM   20  C1  LIG X 999      -0.022  -3.513  -1.820  1.00  0.00     0.037 C 
HETATM   21  C3  LIG X 999       0.949  -2.137  -3.695  1.00  0.00     0.037 C 
BRANCH  19  22
HETATM   22  C17 LIG X 999      -1.401  -1.764  -2.945  1.00  0.00     0.154 A 
HETATM   23  N5  LIG X 999      -2.101  -0.689  -2.528  1.00  0.00    -0.146 NA
HETATM   24  N6  LIG X 999      -3.256  -0.757  -3.175  1.00  0.00     0.018 NA
HETATM   25  N7  LIG X 999      -3.273  -1.825  -3.958  1.00  0.00    -0.005 NA
HETATM   26  N8  LIG X 999      -2.127  -2.468  -3.830  1.00  0.00    -0.271 N 
HETATM   27  H11 LIG X 999      -1.867  -3.345  -4.332  1.00  0.00     0.185 HD
ENDBRANCH  19  22
ENDBRANCH  18  19
ENDBRANCH   6  17
ENDBRANCH   1   4
TORSDOF 4
