REMARK  4 active torsions:
REMARK  status: ('A' for Active; 'I' for Inactive)
REMARK    1  A    between atoms: C2_2  and  C4_4 
REMARK    2  A    between atoms: C2_2  and  C18_22 
REMARK    3  A    between atoms: C5_5  and  C6_6 
REMARK    4  A    between atoms: C8_8  and  N1_9 
ROOT
HETATM    1  N1  LIG X 999       0.318  -0.102  -4.593  1.00  0.00    -0.203 NA
HETATM    2  C9  LIG X 999       1.494  -0.580  -4.489  1.00  0.00     0.337 C 
HETATM    3  O1  LIG X 999       2.636  -1.044  -4.387  1.00  0.00    -0.260 OA
ENDROOT
BRANCH   1   4
HETATM    4  C8  LIG X 999      -0.514   0.213  -3.467  1.00  0.00     0.092 A 
HETATM    5  C7  LIG X 999      -0.097   0.019  -2.119  1.00  0.00     0.055 A 
HETATM    6  C6  LIG X 999      -0.955   0.344  -1.032  1.00  0.00     0.031 A 
HETATM    7  C16 LIG X 999      -2.242   0.869  -1.292  1.00  0.00    -0.004 A 
HETATM    8  C11 LIG X 999      -2.596   1.038  -2.620  1.00  0.00     0.023 A 
HETATM    9  C15 LIG X 999      -3.205   1.239  -0.323  1.00  0.00     0.014 A 
HETATM   10  C10 LIG X 999      -1.793   0.733  -3.680  1.00  0.00     0.102 A 
HETATM   11  C12 LIG X 999      -3.791   1.528  -3.033  1.00  0.00     0.047 A 
HETATM   12  N2  LIG X 999      -2.439   1.018  -4.927  1.00  0.00    -0.207 NA
HETATM   13  C17 LIG X 999      -3.712   1.524  -4.490  1.00  0.00     0.278 A 
HETATM   14  O2  LIG X 999      -4.620   1.905  -5.273  1.00  0.00    -0.265 OA
HETATM   15  C13 LIG X 999      -4.766   1.904  -2.111  1.00  0.00     0.018 A 
HETATM   16  C14 LIG X 999      -4.462   1.755  -0.737  1.00  0.00     0.002 A 
BRANCH   6  17
HETATM   17  C5  LIG X 999      -0.494   0.132   0.317  1.00  0.00    -0.065 C 
HETATM   18  C4  LIG X 999      -0.113  -0.044   1.447  1.00  0.00    -0.084 C 
BRANCH  18  19
HETATM   19  C2  LIG X 999       0.349  -0.260   2.831  1.00  0.00     0.081 C 
HETATM   20  C1  LIG X 999      -0.883  -0.333   3.749  1.00  0.00     0.037 C 
HETATM   21  C3  LIG X 999       1.246   0.915   3.250  1.00  0.00     0.037 C 
BRANCH  19  22
HETATM   22  C18 LIG X 999       1.145  -1.543   2.901  1.00  0.00     0.180 A 
HETATM   23  N3  LIG X 999       1.227  -2.333   3.989  1.00  0.00    -0.143 NA
HETATM   24  N4  LIG X 999       2.087  -3.281   3.655  1.00  0.00     0.019 NA
HETATM   25  N5  LIG X 999       2.527  -3.074   2.425  1.00  0.00     0.019 NA
HETATM   26  N6  LIG X 999       1.964  -1.985   1.927  1.00  0.00    -0.143 NA
ENDBRANCH  19  22
ENDBRANCH  18  19
ENDBRANCH   6  17
ENDBRANCH   1   4
TORSDOF 4
