REMARK  5 active torsions:
REMARK  status: ('A' for Active; 'I' for Inactive)
REMARK    1  A    between atoms: C2_2  and  C4_4 
REMARK    2  A    between atoms: C8_8  and  C9_9 
REMARK    3  A    between atoms: C9_9  and  C10_10 
REMARK    4  A    between atoms: N1_12  and  C12_13 
REMARK    5  A    between atoms: C19_20  and  C20_21 
REMARK       I    between atoms: C20_21  and  N2_22 
ROOT
HETATM    1  C10 LIG X 999      -0.483   1.281   0.832  1.00  0.00     0.073 A 
HETATM    2  C11 LIG X 999       0.482   0.939  -0.089  1.00  0.00     0.143 A 
HETATM    3  N1  LIG X 999      -0.011   1.288  -1.290  1.00  0.00    -0.247 N 
HETATM    4  N3  LIG X 999      -1.226   1.784  -1.115  1.00  0.00     0.009 NA
HETATM    5  N4  LIG X 999      -1.542   1.793   0.172  1.00  0.00    -0.163 NA
ENDROOT
BRANCH   3   6
HETATM    6  C12 LIG X 999       0.594   1.036  -2.570  1.00  0.00     0.065 A 
HETATM    7  C13 LIG X 999       1.121  -0.240  -2.829  1.00  0.00     0.032 A 
HETATM    8  C14 LIG X 999       1.657  -0.551  -4.077  1.00  0.00     0.003 A 
HETATM    9  C15 LIG X 999       1.680   0.406  -5.089  1.00  0.00     0.012 A 
HETATM   10  C16 LIG X 999       1.182   1.695  -4.854  1.00  0.00    -0.024 A 
HETATM   11  C17 LIG X 999       1.227   2.659  -5.871  1.00  0.00     0.013 A 
HETATM   12  C22 LIG X 999       0.643   2.028  -3.584  1.00  0.00     0.004 A 
HETATM   13  C18 LIG X 999       0.763   3.953  -5.638  1.00  0.00     0.018 A 
HETATM   14  C19 LIG X 999       0.255   4.315  -4.380  1.00  0.00     0.034 A 
HETATM   15  C21 LIG X 999       0.206   3.350  -3.358  1.00  0.00     0.031 A 
BRANCH  14  16
HETATM   16  C20 LIG X 999      -0.215   5.700  -4.136  1.00  0.00     0.270 C 
HETATM   17  N2  LIG X 999      -0.741   6.075  -2.864  1.00  0.00    -0.263 NA
HETATM   18  H19 LIG X 999      -1.075   7.049  -2.686  1.00  0.00     0.190 HD
HETATM   19  O1  LIG X 999      -0.157   6.564  -5.053  1.00  0.00    -0.266 OA
ENDBRANCH  14  16
ENDBRANCH   3   6
BRANCH   1  20
HETATM   20  C9  LIG X 999      -0.452   1.002   2.300  1.00  0.00     0.100 C 
BRANCH  20  21
HETATM   21  C8  LIG X 999      -0.912  -0.406   2.563  1.00  0.00    -0.052 A 
HETATM   22  C7  LIG X 999      -2.257  -0.669   2.861  1.00  0.00     0.007 A 
HETATM   23  C6  LIG X 999      -2.690  -1.982   3.054  1.00  0.00     0.001 A 
HETATM   24  C5  LIG X 999      -1.790  -3.044   2.938  1.00  0.00     0.007 A 
HETATM   25  C4  LIG X 999      -0.441  -2.803   2.625  1.00  0.00    -0.054 A 
HETATM   26  C23 LIG X 999      -0.011  -1.476   2.439  1.00  0.00     0.015 A 
BRANCH  25  27
HETATM   27  C2  LIG X 999       0.522  -3.966   2.475  1.00  0.00     0.010 C 
HETATM   28  C1  LIG X 999       1.657  -3.880   3.503  1.00  0.00     0.015 C 
HETATM   29  C3  LIG X 999       1.076  -4.041   1.047  1.00  0.00     0.015 C 
ENDBRANCH  25  27
ENDBRANCH  20  21
ENDBRANCH   1  20
TORSDOF 5
