REMARK  5 active torsions:
REMARK  status: ('A' for Active; 'I' for Inactive)
REMARK    1  A    between atoms: N3_3  and  C1_4 
REMARK    2  A    between atoms: C6_9  and  N4_10 
REMARK    3  A    between atoms: C8_14  and  N7_15 
REMARK    4  A    between atoms: C15_26  and  N11_27 
REMARK    5  A    between atoms: C18_33  and  N15_34 
ROOT
HETATM    1  N1  LIG X 999       0.098  -4.924   4.135  1.00  0.00     0.068 N 
HETATM    2  N2  LIG X 999       0.601  -3.808   4.011  1.00  0.00    -0.162 NA
HETATM    3  N3  LIG X 999       1.101  -2.688   3.893  1.00  0.00    -0.070 NA
ENDROOT
BRANCH   3   4
HETATM    4  C1  LIG X 999       1.184  -1.993   2.639  1.00  0.00     0.121 A 
HETATM    5  C2  LIG X 999       1.123  -0.582   2.688  1.00  0.00     0.053 A 
HETATM    6  C3  LIG X 999       1.088   0.116   1.489  1.00  0.00     0.025 A 
HETATM    7  C4  LIG X 999       1.161  -0.530   0.300  1.00  0.00     0.023 A 
HETATM    8  C17 LIG X 999       0.962   1.454   1.167  1.00  0.00     0.127 A 
HETATM    9  C5  LIG X 999       1.298  -1.904   0.162  1.00  0.00     0.038 A 
HETATM   10  C9  LIG X 999       1.085   0.380  -0.722  1.00  0.00     0.088 A 
HETATM   11  C6  LIG X 999       1.444  -2.379  -1.175  1.00  0.00     0.109 A 
HETATM   12  C18 LIG X 999       1.275  -2.672   1.369  1.00  0.00     0.071 A 
HETATM   13  C7  LIG X 999       1.311  -1.473  -2.258  1.00  0.00     0.072 A 
HETATM   14  C8  LIG X 999       1.125  -0.079  -2.055  1.00  0.00     0.123 A 
HETATM   15  N10 LIG X 999       0.963   1.633  -0.180  1.00  0.00    -0.259 N 
HETATM   16  C10 LIG X 999       0.892   2.885  -0.721  1.00  0.00     0.266 A 
HETATM   17  O1  LIG X 999       0.943   3.064  -1.966  1.00  0.00    -0.267 OA
HETATM   18  C11 LIG X 999       0.777   3.993   0.147  1.00  0.00     0.062 A 
HETATM   19  C12 LIG X 999       0.740   5.308  -0.349  1.00  0.00     0.019 A 
HETATM   20  C16 LIG X 999       0.723   3.768   1.554  1.00  0.00     0.081 A 
HETATM   21  C13 LIG X 999       0.662   6.389   0.526  1.00  0.00     0.004 A 
HETATM   22  C14 LIG X 999       0.587   6.177   1.901  1.00  0.00     0.037 A 
HETATM   23  C15 LIG X 999       0.578   4.880   2.428  1.00  0.00     0.120 A 
HETATM   24  N14 LIG X 999       0.855   2.492   2.034  1.00  0.00    -0.338 N 
HETATM   25  H6  LIG X 999       0.915   2.293   3.055  1.00  0.00     0.167 HD
BRANCH  11  26
HETATM   26  N4  LIG X 999       1.809  -3.727  -1.485  1.00  0.00    -0.072 NA
HETATM   27  N5  LIG X 999       2.839  -4.227  -1.030  1.00  0.00    -0.162 NA
HETATM   28  N6  LIG X 999       3.868  -4.726  -0.577  1.00  0.00     0.068 N 
ENDBRANCH  11  26
BRANCH  14  29
HETATM   29  N7  LIG X 999       0.987   0.813  -3.167  1.00  0.00    -0.070 NA
HETATM   30  N8  LIG X 999       1.015   0.424  -4.336  1.00  0.00    -0.162 NA
HETATM   31  N9  LIG X 999       1.042   0.039  -5.503  1.00  0.00     0.068 N 
ENDBRANCH  14  29
BRANCH  12  32
HETATM   32  N15 LIG X 999       1.297  -4.102   1.324  1.00  0.00    -0.396 N 
HETATM   33  H7  LIG X 999       0.725  -4.623   0.624  1.00  0.00     0.156 HD
HETATM   34  H8  LIG X 999       1.875  -4.650   1.998  1.00  0.00     0.156 HD
ENDBRANCH  12  32
BRANCH  23  35
HETATM   35  N11 LIG X 999       0.407   4.745   3.846  1.00  0.00    -0.070 NA
HETATM   36  N12 LIG X 999      -0.357   3.912   4.336  1.00  0.00    -0.162 NA
HETATM   37  N13 LIG X 999      -1.121   3.083   4.828  1.00  0.00     0.068 N 
ENDBRANCH  23  35
ENDBRANCH   3   4
TORSDOF 5
