REMARK  3 active torsions:
REMARK  status: ('A' for Active; 'I' for Inactive)
REMARK       I    between atoms: C1_2  and  N1_3 
REMARK    1  A    between atoms: C1_2  and  C13_17 
REMARK    2  A    between atoms: N1_3  and  C2_4 
REMARK    3  A    between atoms: C7_9  and  N2_10 
ROOT
HETATM    1  N2  LIG X 999      -2.258   1.028  -4.316  1.00  0.00    -0.233 NA
HETATM    2  C8  LIG X 999      -1.890   0.625  -5.467  1.00  0.00     0.163 C 
HETATM    3  S1  LIG X 999      -1.425   0.114  -6.923  1.00  0.00    -0.055 SA
ENDROOT
BRANCH   1   4
HETATM    4  C7  LIG X 999      -1.384   1.133  -3.176  1.00  0.00     0.069 A 
HETATM    5  C6  LIG X 999      -1.896   1.595  -1.940  1.00  0.00     0.005 A 
HETATM    6  C5  LIG X 999      -3.244   1.982  -1.817  1.00  0.00     0.015 A 
HETATM    7  C12 LIG X 999      -1.041   1.687  -0.805  1.00  0.00     0.003 A 
HETATM    8  C4  LIG X 999      -3.737   2.461  -0.604  1.00  0.00     0.003 A 
HETATM    9  C3  LIG X 999      -2.905   2.543   0.510  1.00  0.00     0.030 A 
HETATM   10  C2  LIG X 999      -1.568   2.137   0.433  1.00  0.00     0.046 A 
HETATM   11  C11 LIG X 999       0.320   1.357  -0.945  1.00  0.00     0.014 A 
HETATM   12  C10 LIG X 999       0.818   0.907  -2.165  1.00  0.00     0.003 A 
HETATM   13  C9  LIG X 999      -0.022   0.787  -3.269  1.00  0.00     0.032 A 
BRANCH  10  14
HETATM   14  N1  LIG X 999      -0.765   2.200   1.622  1.00  0.00    -0.322 N 
HETATM   15  C1  LIG X 999      -0.200   1.022   2.221  1.00  0.00     0.256 C 
HETATM   16  O1  LIG X 999      -0.533  -0.117   1.790  1.00  0.00    -0.267 OA
HETATM   17  H1  LIG X 999      -0.816   3.073   2.192  1.00  0.00     0.169 HD
BRANCH  15  18
HETATM   18  C13 LIG X 999       0.757   1.124   3.349  1.00  0.00     0.032 A 
HETATM   19  C14 LIG X 999       0.977   0.018   4.191  1.00  0.00     0.017 A 
HETATM   20  C15 LIG X 999       1.883   0.104   5.253  1.00  0.00     0.001 A 
HETATM   21  C16 LIG X 999       2.584   1.290   5.481  1.00  0.00     0.000 A 
HETATM   22  C17 LIG X 999       2.384   2.391   4.645  1.00  0.00     0.001 A 
HETATM   23  C18 LIG X 999       1.478   2.311   3.583  1.00  0.00     0.017 A 
ENDBRANCH  15  18
ENDBRANCH  10  14
ENDBRANCH   1   4
TORSDOF 3
