REMARK  4 active torsions:
REMARK  status: ('A' for Active; 'I' for Inactive)
REMARK    1  A    between atoms: C2_2  and  C3_4 
REMARK    2  A    between atoms: C7_9  and  C8_10 
REMARK    3  A    between atoms: C8_10  and  S2_11 
REMARK    4  A    between atoms: S2_11  and  C9_14 
ROOT
HETATM    1  C8  LIG X 999       0.415  -0.799  -1.335  1.00  0.00     0.192 C 
ENDROOT
BRANCH   1   2
HETATM    2  C7  LIG X 999      -1.058  -0.551  -1.379  1.00  0.00    -0.002 A 
HETATM    3  S1  LIG X 999      -1.812   0.624  -2.336  1.00  0.00    -0.093 SA
HETATM    4  C6  LIG X 999      -3.354   0.312  -1.750  1.00  0.00     0.015 A 
HETATM    5  C5  LIG X 999      -4.548   0.928  -2.101  1.00  0.00     0.021 A 
HETATM    6  C20 LIG X 999      -3.299  -0.696  -0.801  1.00  0.00    -0.017 A 
HETATM    7  C4  LIG X 999      -5.727   0.506  -1.468  1.00  0.00     0.016 A 
HETATM    8  C3  LIG X 999      -5.701  -0.523  -0.491  1.00  0.00     0.010 A 
HETATM    9  C21 LIG X 999      -4.463  -1.126  -0.159  1.00  0.00     0.028 A 
HETATM   10  C19 LIG X 999      -2.008  -1.185  -0.580  1.00  0.00     0.028 A 
BRANCH   8  11
HETATM   11  C2  LIG X 999      -6.965  -0.951   0.166  1.00  0.00     0.155 C 
HETATM   12  C1  LIG X 999      -6.992  -2.033   1.204  1.00  0.00     0.096 C 
HETATM   13  O1  LIG X 999      -8.053  -0.396  -0.149  1.00  0.00    -0.293 OA
ENDBRANCH   8  11
ENDBRANCH   1   2
BRANCH   1  14
HETATM   14  S2  LIG X 999       1.174   0.206  -0.072  1.00  0.00     0.180 S 
HETATM   15  O2  LIG X 999       0.931   1.661  -0.364  1.00  0.00    -0.222 OA
HETATM   16  O3  LIG X 999       0.581  -0.124   1.269  1.00  0.00    -0.222 OA
BRANCH  14  17
HETATM   17  C9  LIG X 999       2.905  -0.114  -0.049  1.00  0.00     0.060 A 
HETATM   18  C10 LIG X 999       3.775   0.663  -0.824  1.00  0.00     0.024 A 
HETATM   19  C11 LIG X 999       5.148   0.404  -0.821  1.00  0.00     0.014 A 
HETATM   20  C12 LIG X 999       5.666  -0.643  -0.045  1.00  0.00    -0.026 A 
HETATM   21  C13 LIG X 999       7.043  -0.914  -0.035  1.00  0.00     0.012 A 
HETATM   22  C17 LIG X 999       4.790  -1.438   0.734  1.00  0.00    -0.025 A 
HETATM   23  C14 LIG X 999       7.546  -1.963   0.741  1.00  0.00     0.001 A 
HETATM   24  C15 LIG X 999       6.681  -2.747   1.509  1.00  0.00     0.001 A 
HETATM   25  C16 LIG X 999       5.308  -2.488   1.508  1.00  0.00     0.012 A 
HETATM   26  C18 LIG X 999       3.413  -1.168   0.724  1.00  0.00     0.035 A 
ENDBRANCH  14  17
ENDBRANCH   1  14
TORSDOF 4
