REMARK  6 active torsions:
REMARK  status: ('A' for Active; 'I' for Inactive)
REMARK    1  A    between atoms: C2_3  and  C3_5 
REMARK    2  A    between atoms: C4_6  and  C5_7 
REMARK    3  A    between atoms: C7_9  and  N2_10 
REMARK    4  A    between atoms: C9_14  and  N5_15 
REMARK    5  A    between atoms: C10_16  and  N6_17 
REMARK    6  A    between atoms: C20_31  and  N10_32 
ROOT
HETATM    1  N1  LIG X 999       0.464   7.057   3.149  1.00  0.00    -0.187 NA
HETATM    2  C1  LIG X 999      -0.033   6.950   2.109  1.00  0.00     0.152 C 
HETATM    3  C2  LIG X 999      -0.650   6.816   0.820  1.00  0.00     0.305 C 
HETATM    4  O1  LIG X 999      -1.195   7.811   0.275  1.00  0.00    -0.266 OA
ENDROOT
BRANCH   3   5
HETATM    5  C3  LIG X 999      -0.647   5.546   0.152  1.00  0.00    -0.007 C 
HETATM    6  C4  LIG X 999      -0.641   4.475  -0.404  1.00  0.00    -0.055 C 
BRANCH   6   7
HETATM    7  C5  LIG X 999      -0.652   3.222  -1.112  1.00  0.00     0.048 A 
HETATM    8  C6  LIG X 999      -1.091   3.243  -2.457  1.00  0.00     0.058 A 
HETATM    9  C7  LIG X 999      -1.177   2.065  -3.240  1.00  0.00     0.108 A 
HETATM   10  C8  LIG X 999      -0.720   0.830  -2.697  1.00  0.00     0.038 A 
HETATM   11  C9  LIG X 999      -0.593  -0.427  -3.368  1.00  0.00     0.071 A 
HETATM   12  C13 LIG X 999      -0.345   0.857  -1.361  1.00  0.00     0.022 A 
HETATM   13  C10 LIG X 999      -0.231  -1.595  -2.621  1.00  0.00     0.121 A 
HETATM   14  C11 LIG X 999       0.079  -1.493  -1.239  1.00  0.00     0.053 A 
HETATM   15  C12 LIG X 999       0.034  -0.234  -0.653  1.00  0.00     0.025 A 
HETATM   16  C22 LIG X 999       0.313   0.235   0.615  1.00  0.00     0.127 A 
HETATM   17  N9  LIG X 999       0.126   1.581   0.691  1.00  0.00    -0.260 N 
HETATM   18  N13 LIG X 999       0.734  -0.499   1.675  1.00  0.00    -0.338 N 
HETATM   19  C14 LIG X 999      -0.294   1.970  -0.557  1.00  0.00     0.075 A 
HETATM   20  C15 LIG X 999       0.381   2.253   1.853  1.00  0.00     0.266 A 
HETATM   21  O2  LIG X 999       0.244   3.499   1.931  1.00  0.00    -0.267 OA
HETATM   22  C16 LIG X 999       0.817   1.524   2.981  1.00  0.00     0.062 A 
HETATM   23  C17 LIG X 999       1.134   2.170   4.189  1.00  0.00     0.019 A 
HETATM   24  C21 LIG X 999       0.957   0.109   2.880  1.00  0.00     0.081 A 
HETATM   25  C18 LIG X 999       1.597   1.437   5.280  1.00  0.00     0.004 A 
HETATM   26  C19 LIG X 999       1.717   0.052   5.196  1.00  0.00     0.037 A 
HETATM   27  C20 LIG X 999       1.368  -0.629   4.024  1.00  0.00     0.120 A 
HETATM   28  H8  LIG X 999       0.914  -1.516   1.533  1.00  0.00     0.167 HD
BRANCH   9  29
HETATM   29  N2  LIG X 999      -1.845   2.163  -4.502  1.00  0.00    -0.072 NA
HETATM   30  N3  LIG X 999      -2.764   1.401  -4.802  1.00  0.00    -0.162 NA
HETATM   31  N4  LIG X 999      -3.683   0.641  -5.102  1.00  0.00     0.068 N 
ENDBRANCH   9  29
BRANCH  11  32
HETATM   32  N5  LIG X 999      -0.686  -0.520  -4.797  1.00  0.00    -0.396 N 
HETATM   33  H2  LIG X 999      -0.438   0.291  -5.404  1.00  0.00     0.156 HD
HETATM   34  H3  LIG X 999      -0.829  -1.438  -5.272  1.00  0.00     0.156 HD
ENDBRANCH  11  32
BRANCH  13  35
HETATM   35  N6  LIG X 999      -0.136  -2.858  -3.298  1.00  0.00    -0.070 NA
HETATM   36  N7  LIG X 999       0.184  -3.896  -2.717  1.00  0.00    -0.162 NA
HETATM   37  N8  LIG X 999       0.503  -4.934  -2.139  1.00  0.00     0.068 N 
ENDBRANCH  13  35
BRANCH  27  38
HETATM   38  N10 LIG X 999       1.433  -2.062   4.048  1.00  0.00    -0.070 NA
HETATM   39  N11 LIG X 999       0.539  -2.766   3.575  1.00  0.00    -0.162 NA
HETATM   40  N12 LIG X 999      -0.353  -3.471   3.105  1.00  0.00     0.068 N 
ENDBRANCH  27  38
ENDBRANCH   6   7
ENDBRANCH   3   5
TORSDOF 6
