REMARK  6 active torsions:
REMARK  status: ('A' for Active; 'I' for Inactive)
REMARK    1  A    between atoms: C1_2  and  C2_3 
REMARK    2  A    between atoms: C1_2  and  C14_15 
REMARK    3  A    between atoms: C3_4  and  C4_5 
REMARK    4  A    between atoms: N3_18  and  C15_19 
REMARK    5  A    between atoms: C15_19  and  C16_20 
REMARK    6  A    between atoms: C16_20  and  P1_21 
ROOT
HETATM    1  O1  LIG X 999       1.540  -3.783  -0.876  1.00  0.00    -0.274 OA
HETATM    2  C1  LIG X 999       1.456  -2.613  -0.419  1.00  0.00     0.276 C 
ENDROOT
BRANCH   2   3
HETATM    3  C2  LIG X 999       0.165  -1.994  -0.294  1.00  0.00    -0.015 C 
HETATM    4  C3  LIG X 999      -0.915  -1.469  -0.188  1.00  0.00    -0.058 C 
BRANCH   4   5
HETATM    5  C4  LIG X 999      -2.203  -0.839  -0.059  1.00  0.00     0.019 A 
HETATM    6  C5  LIG X 999      -3.277  -1.274  -0.846  1.00  0.00     0.021 A 
HETATM    7  C6  LIG X 999      -4.529  -0.664  -0.727  1.00  0.00     0.013 A 
HETATM    8  C7  LIG X 999      -4.718   0.388   0.181  1.00  0.00    -0.026 A 
HETATM    9  C8  LIG X 999      -5.971   1.008   0.309  1.00  0.00     0.012 A 
HETATM   10  C12 LIG X 999      -3.633   0.830   0.979  1.00  0.00    -0.025 A 
HETATM   11  C9  LIG X 999      -6.146   2.055   1.218  1.00  0.00     0.001 A 
HETATM   12  C10 LIG X 999      -5.076   2.491   2.005  1.00  0.00     0.001 A 
HETATM   13  C11 LIG X 999      -3.823   1.882   1.888  1.00  0.00     0.012 A 
HETATM   14  C13 LIG X 999      -2.380   0.211   0.852  1.00  0.00     0.032 A 
ENDBRANCH   4   5
ENDBRANCH   2   3
BRANCH   2  15
HETATM   15  C14 LIG X 999       2.669  -1.891  -0.019  1.00  0.00     0.246 A 
HETATM   16  N1  LIG X 999       3.917  -2.396  -0.113  1.00  0.00    -0.132 NA
HETATM   17  N2  LIG X 999       4.707  -1.436   0.340  1.00  0.00     0.024 NA
HETATM   18  N3  LIG X 999       3.963  -0.400   0.689  1.00  0.00    -0.191 N 
HETATM   19  N4  LIG X 999       2.680  -0.641   0.482  1.00  0.00    -0.132 NA
BRANCH  18  20
HETATM   20  C15 LIG X 999       4.491   0.850   1.226  1.00  0.00     0.183 C 
BRANCH  20  21
HETATM   21  C16 LIG X 999       4.269   2.009   0.251  1.00  0.00     0.169 C 
BRANCH  21  22
HETATM   22  P1  LIG X 999       5.230   1.800  -1.284  1.00  0.00     0.261 P 
HETATM   23  O2  LIG X 999       5.098   3.049  -2.126  1.00  0.00    -0.640 OA
HETATM   24  O3  LIG X 999       6.860   1.551  -0.909  1.00  0.00    -0.640 OA
HETATM   25  O4  LIG X 999       4.644   0.477  -2.160  1.00  0.00    -0.640 OA
ENDBRANCH  21  22
ENDBRANCH  20  21
ENDBRANCH  18  20
ENDBRANCH   2  15
TORSDOF 6
