REMARK  6 active torsions:
REMARK  status: ('A' for Active; 'I' for Inactive)
REMARK    1  A    between atoms: C2_2  and  C3_3 
REMARK    2  A    between atoms: C3_3  and  C4_4 
REMARK    3  A    between atoms: C3_3  and  O2_22 
REMARK    4  A    between atoms: C4_4  and  O1_5 
REMARK    5  A    between atoms: O1_5  and  C5_6 
REMARK    6  A    between atoms: C8_9  and  N1_10 
ROOT
HETATM    1  C5  LIG X 999       1.259  -1.367   0.283  1.00  0.00     0.069 A 
HETATM    2  C6  LIG X 999       0.497  -2.142  -0.599  1.00  0.00     0.039 A 
HETATM    3  C7  LIG X 999      -0.898  -2.056  -0.599  1.00  0.00     0.033 A 
HETATM    4  C8  LIG X 999      -1.555  -1.185   0.282  1.00  0.00     0.039 A 
HETATM    5  C17 LIG X 999      -0.796  -0.426   1.186  1.00  0.00     0.033 A 
HETATM    6  C18 LIG X 999       0.599  -0.513   1.188  1.00  0.00     0.039 A 
ENDROOT
BRANCH   4   7
HETATM    7  N1  LIG X 999      -2.990  -1.106   0.283  1.00  0.00    -0.322 N 
HETATM    8  C9  LIG X 999      -3.840  -2.162   0.272  1.00  0.00     0.098 A 
HETATM    9  C10 LIG X 999      -5.161  -1.730   0.295  1.00  0.00     0.031 A 
HETATM   10  C11 LIG X 999      -5.093  -0.354   0.310  1.00  0.00    -0.005 A 
HETATM   11  C12 LIG X 999      -6.112   0.596   0.306  1.00  0.00     0.056 A 
HETATM   12  C16 LIG X 999      -3.767  -0.001   0.298  1.00  0.00     0.049 A 
HETATM   13  C13 LIG X 999      -5.745   1.953   0.279  1.00  0.00     0.117 A 
HETATM   14  F1  LIG X 999      -6.704   2.911   0.272  1.00  0.00    -0.206 F 
HETATM   15  C14 LIG X 999      -4.382   2.323   0.245  1.00  0.00     0.044 A 
HETATM   16  C15 LIG X 999      -3.375   1.341   0.247  1.00  0.00     0.034 A 
ENDBRANCH   4   7
BRANCH   1  17
HETATM   17  O1  LIG X 999       2.658  -1.487   0.225  1.00  0.00    -0.349 OA
BRANCH  17  18
HETATM   18  C4  LIG X 999       3.603  -0.675   0.925  1.00  0.00     0.207 C 
BRANCH  18  19
HETATM   19  C3  LIG X 999       3.868   0.641   0.174  1.00  0.00     0.144 C 
BRANCH  19  20
HETATM   20  C2  LIG X 999       4.977   1.432   0.889  1.00  0.00     0.029 C 
HETATM   21  C1  LIG X 999       5.353   2.703   0.129  1.00  0.00     0.007 C 
ENDBRANCH  19  20
BRANCH  19  22
HETATM   22  O2  LIG X 999       2.682   1.421   0.156  1.00  0.00    -0.389 OA
HETATM   23  C19 LIG X 999       2.237   1.634  -1.166  1.00  0.00     0.202 C 
ENDBRANCH  19  22
ENDBRANCH  18  19
ENDBRANCH  17  18
ENDBRANCH   1  17
TORSDOF 6
