REMARK  2 active torsions:
REMARK  status: ('A' for Active; 'I' for Inactive)
REMARK    1  A    between atoms: C1_2  and  C2_3 
REMARK    2  A    between atoms: C7_8  and  C8_9 
ROOT
HETATM    1  C2  LIG X 999       1.043  -2.421   0.010  1.00  0.00     0.008 A 
HETATM    2  C3  LIG X 999       2.354  -2.248   0.488  1.00  0.00     0.015 A 
HETATM    3  C4  LIG X 999       2.587  -1.773   1.780  1.00  0.00     0.001 A 
HETATM    4  C5  LIG X 999       1.515  -1.471   2.617  1.00  0.00     0.001 A 
HETATM    5  C6  LIG X 999       0.206  -1.619   2.157  1.00  0.00     0.008 A 
HETATM    6  C7  LIG X 999      -0.051  -2.056   0.844  1.00  0.00    -0.041 A 
ENDROOT
BRANCH   6   7
HETATM    7  C8  LIG X 999      -1.488  -2.172   0.389  1.00  0.00     0.019 A 
HETATM    8  C9  LIG X 999      -2.373  -0.958   0.663  1.00  0.00     0.010 A 
HETATM    9  C10 LIG X 999      -1.879  -1.228  -0.744  1.00  0.00     0.010 A 
ENDBRANCH   6   7
BRANCH   1  10
HETATM   10  C1  LIG X 999       0.884  -3.002  -1.344  1.00  0.00     0.270 C 
HETATM   11  O1  LIG X 999      -0.210  -3.483  -1.740  1.00  0.00    -0.301 OA
ENDBRANCH   1  10
TORSDOF 2
