REMARK  0 active torsions:
REMARK  status: ('A' for Active; 'I' for Inactive)
ROOT
HETATM    1  N1  LIG X 999      -3.545  -0.230  -0.320  1.00  0.00    -0.191 NA
HETATM    2  C1  LIG X 999      -2.406  -0.117  -0.147  1.00  0.00     0.107 C 
HETATM    3  C2  LIG X 999      -0.993   0.023   0.068  1.00  0.00     0.086 A 
HETATM    4  C3  LIG X 999       0.001  -0.435  -0.785  1.00  0.00     0.032 A 
HETATM    5  C4  LIG X 999       1.291  -0.157  -0.317  1.00  0.00     0.033 A 
HETATM    6  C5  LIG X 999       1.296   0.516   0.897  1.00  0.00     0.075 A 
HETATM    7 CL1  LIG X 999       2.722   1.025   1.776  1.00  0.00    -0.076 Cl
HETATM    8  S1  LIG X 999      -0.289   0.771   1.398  1.00  0.00    -0.067 SA
ENDROOT
TORSDOF 0
