REMARK  1 active torsions:
REMARK  status: ('A' for Active; 'I' for Inactive)
REMARK    1  A    between atoms: C1_2  and  C2_3 
ROOT
HETATM    1  C2  LIG X 999      -0.577  -0.709   0.810  1.00  0.00     0.002 A 
HETATM    2  C3  LIG X 999      -1.906  -0.299   0.618  1.00  0.00     0.016 A 
HETATM    3  C4  LIG X 999      -2.220   0.648  -0.362  1.00  0.00     0.024 A 
HETATM    4  C5  LIG X 999      -1.208   1.194  -1.159  1.00  0.00     0.034 A 
HETATM    5 CL1  LIG X 999      -1.603   2.381  -2.388  1.00  0.00    -0.084 Cl
HETATM    6  C6  LIG X 999       0.118   0.791  -0.975  1.00  0.00     0.024 A 
HETATM    7  C7  LIG X 999       0.435  -0.155   0.005  1.00  0.00     0.016 A 
ENDROOT
BRANCH   1   8
HETATM    8  C1  LIG X 999      -0.264  -1.708   1.848  1.00  0.00     0.269 C 
HETATM    9  O1  LIG X 999       0.918  -2.095   2.043  1.00  0.00    -0.301 OA
ENDBRANCH   1   8
TORSDOF 1
