REMARK  3 active torsions:
REMARK  status: ('A' for Active; 'I' for Inactive)
REMARK    1  A    between atoms: C2_2  and  N1_3 
REMARK    2  A    between atoms: C3_4  and  C4_5 
REMARK    3  A    between atoms: C8_10  and  O2_11 
ROOT
HETATM    1  N1  LIG X 999       0.696  -0.225   0.426  1.00  0.00    -0.372 N 
HETATM    2  C3  LIG X 999       0.488   1.150  -0.041  1.00  0.00     0.150 C 
HETATM    3  C5  LIG X 999      -0.499   0.934  -1.214  1.00  0.00     0.019 C 
HETATM    4  C6  LIG X 999      -0.023  -0.399  -1.760  1.00  0.00     0.035 C 
HETATM    5  C7  LIG X 999      -0.115  -1.099  -0.421  1.00  0.00     0.113 C 
HETATM    6  C8  LIG X 999      -1.588  -0.863  -0.024  1.00  0.00     0.141 C 
HETATM    7  C9  LIG X 999      -1.869   0.537  -0.623  1.00  0.00     0.041 C 
ENDROOT
BRANCH   1   8
HETATM    8  C2  LIG X 999       1.216  -0.629   1.704  1.00  0.00     0.076 C 
HETATM    9  C1  LIG X 999       1.812   0.226   2.534  1.00  0.00     0.029 C 
ENDBRANCH   1   8
BRANCH   2  10
HETATM   10  C4  LIG X 999       1.783   1.762  -0.505  1.00  0.00     0.256 C 
HETATM   11  O1  LIG X 999       1.807   2.912  -0.912  1.00  0.00    -0.305 OA
ENDBRANCH   2  10
BRANCH   6  12
HETATM   12  O2  LIG X 999      -2.451  -1.856  -0.524  1.00  0.00    -0.393 OA
HETATM   13  H11 LIG X 999      -2.376  -1.875  -1.512  1.00  0.00     0.210 HD
ENDBRANCH   6  12
TORSDOF 3
