REMARK  7 active torsions:
REMARK  status: ('A' for Active; 'I' for Inactive)
REMARK    1  A    between atoms: C2_2  and  C4_4 
REMARK    2  A    between atoms: C4_4  and  N1_5 
REMARK    3  A    between atoms: N1_5  and  C5_6 
REMARK    4  A    between atoms: C5_6  and  C6_7 
REMARK    5  A    between atoms: C6_7  and  O1_9 
REMARK    6  A    between atoms: C6_7  and  C8_10 
REMARK    7  A    between atoms: C8_10  and  N2_11 
ROOT
HETATM    1  C6  LIG X 999      -0.931   1.929  -0.666  1.00  0.00     0.098 C 
HETATM    2  C7  LIG X 999      -1.279   1.292  -2.030  1.00  0.00     0.049 C 
ENDROOT
BRANCH   1   3
HETATM    3  C5  LIG X 999       0.389   1.340  -0.092  1.00  0.00     0.308 C 
BRANCH   3   4
HETATM    4  N1  LIG X 999       0.339  -0.132   0.002  1.00  0.00     0.086 N 
HETATM    5  H10 LIG X 999       0.536  -0.426   0.985  1.00  0.00     0.316 HD
BRANCH   4   6
HETATM    6  C4  LIG X 999       1.270  -0.804  -0.921  1.00  0.00     0.273 C 
BRANCH   6   7
HETATM    7  C2  LIG X 999       2.739  -0.778  -0.423  1.00  0.00     0.005 C 
HETATM    8  C1  LIG X 999       2.981  -1.817   0.683  1.00  0.00     0.011 C 
HETATM    9  C3  LIG X 999       3.698  -1.035  -1.592  1.00  0.00     0.011 C 
ENDBRANCH   6   7
ENDBRANCH   4   6
ENDBRANCH   3   4
ENDBRANCH   1   3
BRANCH   1  10
HETATM   10  O1  LIG X 999      -0.754   3.316  -0.854  1.00  0.00    -0.387 OA
HETATM   11  H16 LIG X 999      -0.028   3.455  -1.518  1.00  0.00     0.210 HD
ENDBRANCH   1  10
BRANCH   1  12
HETATM   12  C8  LIG X 999      -2.110   1.776   0.332  1.00  0.00     0.185 C 
BRANCH  12  13
HETATM   13  N2  LIG X 999      -2.455   0.386   0.631  1.00  0.00    -0.283 N 
HETATM   14  C9  LIG X 999      -3.275  -0.417  -0.076  1.00  0.00     0.126 A 
HETATM   15  C10 LIG X 999      -3.351  -1.609   0.613  1.00  0.00     0.123 A 
HETATM   16  N3  LIG X 999      -2.588  -1.480   1.714  1.00  0.00    -0.294 N 
HETATM   17  N4  LIG X 999      -2.062  -0.266   1.714  1.00  0.00    -0.021 NA
HETATM   18  H21 LIG X 999      -2.434  -2.197   2.457  1.00  0.00     0.183 HD
ENDBRANCH  12  13
ENDBRANCH   1  12
TORSDOF 7
