REMARK  2 active torsions:
REMARK  status: ('A' for Active; 'I' for Inactive)
REMARK    1  A    between atoms: C3_4  and  C4_5 
REMARK    2  A    between atoms: C4_5  and  N2_6 
ROOT
HETATM    1  C1  LIG X 999       1.669  -1.193   1.568  1.00  0.00     0.069 C 
HETATM    2  C2  LIG X 999       0.700  -0.580   0.603  1.00  0.00     0.018 A 
HETATM    3  N1  LIG X 999      -0.006  -1.328  -0.289  1.00  0.00    -0.355 N 
HETATM    4  C3  LIG X 999      -0.834  -0.582  -1.053  1.00  0.00     0.079 A 
HETATM    5  S1  LIG X 999      -0.751   1.045  -0.630  1.00  0.00    -0.078 SA
HETATM    6  C5  LIG X 999       0.406   0.784   0.566  1.00  0.00     0.003 A 
HETATM    7  C6  LIG X 999       1.014   1.851   1.418  1.00  0.00     0.058 C 
HETATM    8  H4  LIG X 999       0.076  -2.367  -0.372  1.00  0.00     0.166 HD
ENDROOT
BRANCH   4   9
HETATM    9  C4  LIG X 999      -1.770  -1.152  -2.070  1.00  0.00     0.331 C 
BRANCH   9  10
HETATM   10  N2  LIG X 999      -2.986  -1.622  -1.417  1.00  0.00     0.084 N 
HETATM   11  H7  LIG X 999      -3.517  -0.788  -1.076  1.00  0.00     0.313 HD
HETATM   12  H8  LIG X 999      -3.582  -2.077  -2.146  1.00  0.00     0.313 HD
ENDBRANCH   9  10
ENDBRANCH   4   9
TORSDOF 2
