REMARK  1 active torsions:
REMARK  status: ('A' for Active; 'I' for Inactive)
REMARK    1  A    between atoms: N1_1  and  C1_2 
ROOT
HETATM    1  C1  LIG X 999      -0.346  -0.785   1.609  1.00  0.00     0.030 A 
HETATM    2  C2  LIG X 999      -0.068   0.490   2.121  1.00  0.00     0.069 A 
HETATM    3  C3  LIG X 999      -0.957   1.547   1.900  1.00  0.00     0.111 A 
HETATM    4  O1  LIG X 999      -0.677   2.809   2.410  1.00  0.00    -0.192 OA
HETATM    5  C4  LIG X 999      -2.129   1.334   1.166  1.00  0.00     0.064 A 
HETATM    6  C5  LIG X 999      -2.412   0.064   0.652  1.00  0.00     0.038 A 
HETATM    7 CL1  LIG X 999      -3.881  -0.202  -0.269  1.00  0.00    -0.084 Cl
HETATM    8  C6  LIG X 999      -1.522  -0.994   0.873  1.00  0.00     0.052 A 
ENDROOT
BRANCH   1   9
HETATM    9  N1  LIG X 999       0.563  -1.866   1.834  1.00  0.00    -0.399 N 
HETATM   10  H1  LIG X 999       1.441  -1.721   2.381  1.00  0.00     0.156 HD
HETATM   11  H2  LIG X 999       0.364  -2.819   1.457  1.00  0.00     0.156 HD
ENDBRANCH   1   9
TORSDOF 1
