REMARK  3 active torsions:
REMARK  status: ('A' for Active; 'I' for Inactive)
REMARK    1  A    between atoms: N1_1  and  N2_2 
REMARK    2  A    between atoms: N2_2  and  C1_3 
REMARK    3  A    between atoms: C1_3  and  C2_4 
ROOT
HETATM    1  N2  LIG X 999      -1.743  -0.101   0.056  1.00  0.00    -0.012 N 
HETATM    2  H3  LIG X 999      -2.690  -0.039   0.498  1.00  0.00     0.299 HD
HETATM    3  H4  LIG X 999      -1.609  -1.074  -0.307  1.00  0.00     0.299 HD
ENDROOT
BRANCH   1   4
HETATM    4  N1  LIG X 999      -1.709   0.802  -1.029  1.00  0.00    -0.164 NA
HETATM    5  H1  LIG X 999      -0.795   0.710  -1.531  1.00  0.00     0.149 HD
HETATM    6  H2  LIG X 999      -1.798   1.782  -0.672  1.00  0.00     0.149 HD
ENDBRANCH   1   4
BRANCH   1   7
HETATM    7  C1  LIG X 999      -0.719   0.226   1.065  1.00  0.00     0.293 C 
BRANCH   7   8
HETATM    8  C2  LIG X 999       0.667  -0.079   0.572  1.00  0.00    -0.007 A 
HETATM    9  C3  LIG X 999       1.235  -1.328   0.437  1.00  0.00     0.035 A 
HETATM   10  C4  LIG X 999       2.492  -1.104  -0.087  1.00  0.00     0.142 A 
HETATM   11  O1  LIG X 999       2.678   0.185  -0.266  1.00  0.00    -0.334 OA
HETATM   12  C5  LIG X 999       1.600   0.829   0.117  1.00  0.00     0.150 A 
ENDBRANCH   7   8
ENDBRANCH   1   7
TORSDOF 3
