REMARK  2 active torsions:
REMARK  status: ('A' for Active; 'I' for Inactive)
REMARK    1  A    between atoms: N1_2  and  C2_3 
REMARK    2  A    between atoms: C7_9  and  N2_10 
ROOT
HETATM    1  C2  LIG X 999      -0.770  -0.278   0.466  1.00  0.00     0.158 A 
HETATM    2  C3  LIG X 999      -1.043   1.095   0.304  1.00  0.00     0.042 A 
HETATM    3  C4  LIG X 999      -1.073   1.673  -0.966  1.00  0.00     0.044 A 
HETATM    4  C5  LIG X 999      -0.824   0.893  -2.094  1.00  0.00     0.118 A 
HETATM    5  F1  LIG X 999      -0.855   1.458  -3.327  1.00  0.00    -0.206 F 
HETATM    6  C6  LIG X 999      -0.536  -0.465  -1.956  1.00  0.00     0.073 A 
HETATM    7  C7  LIG X 999      -0.496  -1.065  -0.686  1.00  0.00     0.063 A 
ENDROOT
BRANCH   1   8
HETATM    8  N1  LIG X 999      -0.745  -0.837   1.799  1.00  0.00    -0.047 N 
HETATM    9  C1  LIG X 999       0.622  -0.841   2.326  1.00  0.00     0.274 C 
HETATM   10  H4  LIG X 999      -1.345  -0.267   2.439  1.00  0.00     0.283 HD
HETATM   11  H5  LIG X 999      -1.140  -1.804   1.807  1.00  0.00     0.283 HD
ENDBRANCH   1   8
BRANCH   7  12
HETATM   12  N2  LIG X 999      -0.168  -2.459  -0.595  1.00  0.00    -0.397 N 
HETATM   13  H9  LIG X 999      -0.034  -2.950   0.314  1.00  0.00     0.156 HD
HETATM   14  H10 LIG X 999      -0.009  -3.020  -1.462  1.00  0.00     0.156 HD
ENDBRANCH   7  12
TORSDOF 2
