REMARK  2 active torsions:
REMARK  status: ('A' for Active; 'I' for Inactive)
REMARK    1  A    between atoms: C2_2  and  N1_3 
REMARK    2  A    between atoms: N1_3  and  C3_4 
ROOT
HETATM    1  C3  LIG X 999      -0.740   0.967  -0.009  1.00  0.00     0.170 A 
HETATM    2  N2  LIG X 999      -1.943   1.468   0.343  1.00  0.00    -0.236 NA
HETATM    3  C4  LIG X 999      -2.572   2.052  -0.712  1.00  0.00     0.126 A 
HETATM    4  C5  LIG X 999      -1.871   2.018  -1.912  1.00  0.00     0.072 A 
HETATM    5  S1  LIG X 999      -0.411   1.229  -1.641  1.00  0.00    -0.062 SA
ENDROOT
BRANCH   1   6
HETATM    6  N1  LIG X 999       0.122   0.301   0.922  1.00  0.00    -0.346 N 
HETATM    7  H4  LIG X 999      -0.205   0.206   1.910  1.00  0.00     0.167 HD
BRANCH   6   8
HETATM    8  C2  LIG X 999       1.400  -0.231   0.548  1.00  0.00     0.080 C 
HETATM    9  C1  LIG X 999       2.171  -0.843   1.442  1.00  0.00     0.030 C 
ENDBRANCH   6   8
ENDBRANCH   1   6
TORSDOF 2
