REMARK  5 active torsions:
REMARK  status: ('A' for Active; 'I' for Inactive)
REMARK    1  A    between atoms: C2_2  and  C4_4 
REMARK    2  A    between atoms: C4_4  and  C5_5 
REMARK    3  A    between atoms: C5_5  and  C6_7 
REMARK    4  A    between atoms: C6_7  and  N1_8 
REMARK    5  A    between atoms: N1_8  and  C7_9 
ROOT
HETATM    1  C5  LIG X 999       0.610   1.055  -0.667  1.00  0.00     0.146 C 
HETATM    2  O1  LIG X 999       0.925  -0.112  -0.853  1.00  0.00    -0.296 OA
ENDROOT
BRANCH   1   3
HETATM    3  C4  LIG X 999      -0.555   1.639  -1.423  1.00  0.00     0.084 C 
BRANCH   3   4
HETATM    4  C2  LIG X 999      -1.827   1.743  -0.556  1.00  0.00    -0.016 C 
HETATM    5  C1  LIG X 999      -2.923   2.500  -1.316  1.00  0.00     0.010 C 
HETATM    6  C3  LIG X 999      -2.341   0.357  -0.139  1.00  0.00     0.010 C 
ENDBRANCH   3   4
ENDBRANCH   1   3
BRANCH   1   7
HETATM    7  C6  LIG X 999       1.406   1.893   0.296  1.00  0.00     0.230 C 
BRANCH   7   8
HETATM    8  N1  LIG X 999       1.579   1.197   1.566  1.00  0.00    -0.257 NA
BRANCH   8   9
HETATM    9  C7  LIG X 999       0.513   1.022   2.498  1.00  0.00     0.371 C 
HETATM   10  O2  LIG X 999       0.714   0.392   3.567  1.00  0.00    -0.282 OA
ENDBRANCH   8   9
ENDBRANCH   7   8
ENDBRANCH   1   7
TORSDOF 5
