REMARK  3 active torsions:
REMARK  status: ('A' for Active; 'I' for Inactive)
REMARK    1  A    between atoms: N3_3  and  C1_4 
REMARK    2  A    between atoms: C2_5  and  N4_6 
REMARK    3  A    between atoms: C10_16  and  N7_17 
ROOT
HETATM    1  N1  LIG X 999      -4.856   0.707   1.437  1.00  0.00     0.068 N 
HETATM    2  N2  LIG X 999      -4.098   0.194   0.616  1.00  0.00    -0.162 NA
HETATM    3  N3  LIG X 999      -3.339  -0.324  -0.205  1.00  0.00    -0.068 NA
ENDROOT
BRANCH   3   4
HETATM    4  C1  LIG X 999      -1.914  -0.150  -0.145  1.00  0.00     0.158 C 
HETATM    5  C2  LIG X 999      -1.107  -1.261  -0.431  1.00  0.00     0.143 C 
HETATM    6  C3  LIG X 999       0.292  -1.208  -0.200  1.00  0.00     0.081 C 
HETATM    7  C4  LIG X 999       0.888   0.022   0.176  1.00  0.00     0.011 A 
HETATM    8  C12 LIG X 999       1.149  -2.429  -0.258  1.00  0.00     0.290 C 
HETATM    9  C5  LIG X 999       2.294   0.133   0.338  1.00  0.00     0.047 A 
HETATM   10  C9  LIG X 999       0.073   1.169   0.382  1.00  0.00     0.010 A 
HETATM   11  C6  LIG X 999       2.862   1.363   0.706  1.00  0.00     0.018 A 
HETATM   12  C11 LIG X 999       3.163  -1.040   0.104  1.00  0.00     0.288 C 
HETATM   13  C7  LIG X 999       2.058   2.478   0.912  1.00  0.00     0.002 A 
HETATM   14  C8  LIG X 999       0.678   2.388   0.750  1.00  0.00     0.015 A 
HETATM   15  O1  LIG X 999       4.418  -0.938   0.177  1.00  0.00    -0.265 OA
HETATM   16  N10 LIG X 999       2.572  -2.303  -0.198  1.00  0.00    -0.111 N 
HETATM   17  O2  LIG X 999       3.356  -3.396  -0.358  1.00  0.00    -0.074 OA
HETATM   18  C10 LIG X 999      -1.324   1.088   0.203  1.00  0.00     0.138 C 
HETATM   19  O3  LIG X 999       0.641  -3.582  -0.288  1.00  0.00    -0.265 OA
BRANCH   5  20
HETATM   20  N4  LIG X 999      -1.748  -2.433  -0.954  1.00  0.00    -0.069 NA
HETATM   21  N5  LIG X 999      -1.369  -2.956  -2.003  1.00  0.00    -0.162 NA
HETATM   22  N6  LIG X 999      -0.992  -3.478  -3.051  1.00  0.00     0.068 N 
ENDBRANCH   5  20
BRANCH  18  23
HETATM   23  N7  LIG X 999      -2.108   2.289   0.307  1.00  0.00    -0.069 NA
HETATM   24  N8  LIG X 999      -3.006   2.555  -0.493  1.00  0.00    -0.162 NA
HETATM   25  N9  LIG X 999      -3.901   2.825  -1.293  1.00  0.00     0.068 N 
ENDBRANCH  18  23
ENDBRANCH   3   4
TORSDOF 3
