REMARK  3 active torsions:
REMARK  status: ('A' for Active; 'I' for Inactive)
REMARK    1  A    between atoms: N3_3  and  C1_4 
REMARK    2  A    between atoms: C1_4  and  C2_5 
REMARK    3  A    between atoms: C2_5  and  C3_7 
ROOT
HETATM    1  N1  LIG X 999       5.168   2.446  -1.416  1.00  0.00     0.068 N 
HETATM    2  N2  LIG X 999       4.366   1.518  -1.326  1.00  0.00    -0.167 NA
HETATM    3  N3  LIG X 999       3.562   0.590  -1.236  1.00  0.00    -0.108 NA
ENDROOT
BRANCH   3   4
HETATM    4  C1  LIG X 999       3.532  -0.251  -0.049  1.00  0.00     0.272 C 
BRANCH   4   5
HETATM    5  C2  LIG X 999       2.459  -1.292  -0.195  1.00  0.00     0.181 C 
HETATM    6  O1  LIG X 999       2.811  -2.470  -0.479  1.00  0.00    -0.290 OA
BRANCH   5   7
HETATM    7  C3  LIG X 999       1.012  -0.974  -0.041  1.00  0.00     0.012 A 
HETATM    8  C4  LIG X 999       0.062  -2.013  -0.069  1.00  0.00     0.016 A 
HETATM    9  C5  LIG X 999      -1.301  -1.742   0.072  1.00  0.00     0.013 A 
HETATM   10  C6  LIG X 999      -1.746  -0.426   0.244  1.00  0.00    -0.026 A 
HETATM   11  C7  LIG X 999      -3.113  -0.144   0.386  1.00  0.00     0.012 A 
HETATM   12  C11 LIG X 999      -0.805   0.631   0.272  1.00  0.00    -0.025 A 
HETATM   13  C8  LIG X 999      -3.544   1.174   0.555  1.00  0.00     0.001 A 
HETATM   14  C9  LIG X 999      -2.617   2.219   0.582  1.00  0.00     0.001 A 
HETATM   15  C10 LIG X 999      -1.252   1.951   0.442  1.00  0.00     0.012 A 
HETATM   16  C12 LIG X 999       0.563   0.351   0.130  1.00  0.00     0.027 A 
ENDBRANCH   5   7
ENDBRANCH   4   5
ENDBRANCH   3   4
TORSDOF 3
