REMARK  7 active torsions:
REMARK  status: ('A' for Active; 'I' for Inactive)
REMARK    1  A    between atoms: N3_3  and  C1_4 
REMARK    2  A    between atoms: C2_5  and  N4_6 
REMARK    3  A    between atoms: C3_9  and  O1_10 
REMARK    4  A    between atoms: O1_10  and  C4_11 
REMARK    5  A    between atoms: C4_11  and  C5_13 
REMARK    6  A    between atoms: C5_13  and  C6_14 
REMARK    7  A    between atoms: C17_26  and  N8_27 
ROOT
HETATM    1  N1  LIG X 999      -1.855   0.216   6.101  1.00  0.00     0.068 N 
HETATM    2  N2  LIG X 999      -0.734   0.141   5.600  1.00  0.00    -0.162 NA
HETATM    3  N3  LIG X 999       0.394   0.068   5.110  1.00  0.00    -0.067 NA
ENDROOT
BRANCH   3   4
HETATM    4  C1  LIG X 999       0.685   0.189   3.703  1.00  0.00     0.159 A 
HETATM    5  C2  LIG X 999      -0.339   0.146   2.718  1.00  0.00     0.161 A 
HETATM    6  C3  LIG X 999      -0.002   0.259   1.350  1.00  0.00     0.124 A 
HETATM    7  C11 LIG X 999       1.348   0.311   0.953  1.00  0.00     0.013 A 
HETATM    8  C12 LIG X 999       1.699   0.315  -0.414  1.00  0.00     0.015 A 
HETATM    9  C16 LIG X 999       2.372   0.343   1.931  1.00  0.00     0.011 A 
HETATM   10  C13 LIG X 999       3.035   0.382  -0.806  1.00  0.00     0.001 A 
HETATM   11  C14 LIG X 999       4.042   0.439   0.153  1.00  0.00     0.001 A 
HETATM   12  C15 LIG X 999       3.719   0.416   1.510  1.00  0.00     0.015 A 
HETATM   13  C17 LIG X 999       2.044   0.307   3.304  1.00  0.00     0.138 A 
BRANCH   5  14
HETATM   14  N4  LIG X 999      -1.708  -0.009   3.138  1.00  0.00    -0.067 NA
HETATM   15  N5  LIG X 999      -2.644  -0.241   2.370  1.00  0.00    -0.162 NA
HETATM   16  N6  LIG X 999      -3.583  -0.476   1.611  1.00  0.00     0.068 N 
ENDBRANCH   5  14
BRANCH   6  17
HETATM   17  O1  LIG X 999      -1.016   0.317   0.387  1.00  0.00    -0.275 OA
BRANCH  17  18
HETATM   18  C4  LIG X 999      -1.307   1.479  -0.335  1.00  0.00     0.268 C 
HETATM   19  O2  LIG X 999      -0.739   2.570  -0.055  1.00  0.00    -0.265 OA
BRANCH  18  20
HETATM   20  C5  LIG X 999      -2.261   1.409  -1.482  1.00  0.00     0.150 C 
BRANCH  20  21
HETATM   21  C6  LIG X 999      -1.578   0.786  -2.667  1.00  0.00    -0.046 A 
HETATM   22  C7  LIG X 999      -1.597  -0.605  -2.847  1.00  0.00     0.027 A 
HETATM   23  C8  LIG X 999      -0.903  -1.170  -3.920  1.00  0.00     0.116 A 
HETATM   24  N7  LIG X 999      -0.207  -0.376  -4.776  1.00  0.00    -0.273 NA
HETATM   25  C9  LIG X 999      -0.162   0.974  -4.620  1.00  0.00     0.116 A 
HETATM   26  C10 LIG X 999      -0.842   1.580  -3.560  1.00  0.00     0.027 A 
ENDBRANCH  20  21
ENDBRANCH  18  20
ENDBRANCH  17  18
ENDBRANCH   6  17
BRANCH  13  27
HETATM   27  N8  LIG X 999       3.124   0.369   4.260  1.00  0.00    -0.069 NA
HETATM   28  N9  LIG X 999       2.976   0.604   5.461  1.00  0.00    -0.162 NA
HETATM   29  N10 LIG X 999       2.839   0.842   6.660  1.00  0.00     0.068 N 
ENDBRANCH  13  27
ENDBRANCH   3   4
TORSDOF 7
