REMARK  4 active torsions:
REMARK  status: ('A' for Active; 'I' for Inactive)
REMARK    1  A    between atoms: N3_3  and  C1_4 
REMARK    2  A    between atoms: C3_7  and  N4_8 
REMARK    3  A    between atoms: C6_12  and  O2_13 
REMARK    4  A    between atoms: C8_15  and  O3_16 
ROOT
HETATM    1  N1  LIG X 999      -0.356   0.511  -5.819  1.00  0.00     0.068 N 
HETATM    2  N2  LIG X 999      -0.494  -0.181  -4.811  1.00  0.00    -0.162 NA
HETATM    3  N3  LIG X 999      -0.636  -0.874  -3.802  1.00  0.00    -0.070 NA
ENDROOT
BRANCH   3   4
HETATM    4  C1  LIG X 999      -0.019  -0.528  -2.552  1.00  0.00     0.128 A 
HETATM    5  C2  LIG X 999      -0.822  -0.516  -1.404  1.00  0.00     0.095 A 
HETATM    6 CL1  LIG X 999      -2.523  -0.971  -1.527  1.00  0.00    -0.079 Cl
HETATM    7  C3  LIG X 999      -0.295  -0.107  -0.171  1.00  0.00     0.089 A 
HETATM    8  C8  LIG X 999       1.046   0.285  -0.064  1.00  0.00     0.105 A 
HETATM    9  C9  LIG X 999       1.893   0.230  -1.200  1.00  0.00     0.012 A 
HETATM   10  C10 LIG X 999       3.263   0.572  -1.127  1.00  0.00     0.015 A 
HETATM   11  C14 LIG X 999       1.359  -0.203  -2.451  1.00  0.00     0.010 A 
HETATM   12  C11 LIG X 999       4.087   0.463  -2.246  1.00  0.00     0.001 A 
HETATM   13  C12 LIG X 999       3.575  -0.001  -3.452  1.00  0.00     0.001 A 
HETATM   14  C13 LIG X 999       2.228  -0.340  -3.556  1.00  0.00     0.015 A 
BRANCH   7  15
HETATM   15  N4  LIG X 999      -1.126  -0.067   0.998  1.00  0.00    -0.370 N 
HETATM   16  C4  LIG X 999      -1.368  -1.291   1.762  1.00  0.00     0.149 C 
HETATM   17  C5  LIG X 999      -1.606  -0.934   3.232  1.00  0.00     0.191 C 
HETATM   18  O1  LIG X 999      -2.601   0.066   3.353  1.00  0.00    -0.358 OA
HETATM   19  C6  LIG X 999      -2.146   1.277   2.769  1.00  0.00     0.274 C 
HETATM   20  C7  LIG X 999      -1.965   1.103   1.256  1.00  0.00     0.183 C 
BRANCH  19  21
HETATM   21  O2  LIG X 999      -3.094   2.282   2.998  1.00  0.00    -0.370 OA
HETATM   22  H6  LIG X 999      -3.106   2.438   3.979  1.00  0.00     0.212 HD
ENDBRANCH  19  21
ENDBRANCH   7  15
BRANCH   8  23
HETATM   23  O3  LIG X 999       1.486   0.711   1.196  1.00  0.00    -0.357 OA
HETATM   24  H9  LIG X 999       2.415   1.044   1.405  1.00  0.00     0.217 HD
ENDBRANCH   8  23
ENDBRANCH   3   4
TORSDOF 4
