REMARK  8 active torsions:
REMARK  status: ('A' for Active; 'I' for Inactive)
REMARK    1  A    between atoms: C2_2  and  O1_5 
REMARK    2  A    between atoms: O1_5  and  C5_6 
REMARK    3  A    between atoms: C5_6  and  C6_8 
REMARK    4  A    between atoms: C6_8  and  O3_9 
REMARK    5  A    between atoms: O3_9  and  C7_10 
REMARK    6  A    between atoms: C8_11  and  N1_12 
REMARK    7  A    between atoms: C9_15  and  N4_16 
REMARK    8  A    between atoms: C10_19  and  N7_20 
ROOT
HETATM    1  N1  LIG X 999       0.951  -0.599  -2.252  1.00  0.00    -0.067 NA
HETATM    2  N2  LIG X 999       1.087  -0.041  -3.342  1.00  0.00    -0.162 NA
HETATM    3  N3  LIG X 999       1.230   0.514  -4.431  1.00  0.00     0.068 N 
ENDROOT
BRANCH   1   4
HETATM    4  C8  LIG X 999      -0.312  -0.725  -1.570  1.00  0.00     0.161 C 
HETATM    5  C7  LIG X 999      -0.362  -1.582  -0.463  1.00  0.00     0.114 C 
HETATM    6  C16 LIG X 999      -1.574  -1.802   0.219  1.00  0.00     0.013 A 
HETATM    7  C11 LIG X 999      -2.740  -1.100  -0.177  1.00  0.00     0.011 A 
HETATM    8  C15 LIG X 999      -1.653  -2.736   1.271  1.00  0.00     0.015 A 
HETATM    9  C10 LIG X 999      -2.688  -0.202  -1.266  1.00  0.00     0.138 C 
HETATM   10  C12 LIG X 999      -3.948  -1.330   0.516  1.00  0.00     0.015 A 
HETATM   11  C9  LIG X 999      -1.454   0.030  -1.928  1.00  0.00     0.159 C 
HETATM   12  C13 LIG X 999      -3.999  -2.243   1.571  1.00  0.00     0.001 A 
HETATM   13  C14 LIG X 999      -2.857  -2.947   1.943  1.00  0.00     0.001 A 
BRANCH   5  14
HETATM   14  O3  LIG X 999       0.828  -2.189  -0.036  1.00  0.00    -0.338 OA
BRANCH  14  15
HETATM   15  C6  LIG X 999       1.550  -1.727   1.107  1.00  0.00     0.286 C 
BRANCH  15  16
HETATM   16  C5  LIG X 999       1.978  -0.303   0.925  1.00  0.00     0.283 C 
HETATM   17  O2  LIG X 999       3.173  -0.043   0.622  1.00  0.00    -0.263 OA
BRANCH  16  18
HETATM   18  O1  LIG X 999       1.018   0.712   1.061  1.00  0.00    -0.310 OA
BRANCH  18  19
HETATM   19  C2  LIG X 999       1.235   2.121   0.902  1.00  0.00     0.060 C 
HETATM   20  C1  LIG X 999      -0.115   2.814   1.144  1.00  0.00     0.045 C 
HETATM   21  C3  LIG X 999       2.254   2.629   1.939  1.00  0.00     0.045 C 
HETATM   22  C4  LIG X 999       1.708   2.446  -0.527  1.00  0.00     0.045 C 
ENDBRANCH  18  19
ENDBRANCH  16  18
ENDBRANCH  15  16
ENDBRANCH  14  15
ENDBRANCH   5  14
BRANCH   9  23
HETATM   23  N7  LIG X 999      -3.908   0.417  -1.711  1.00  0.00    -0.069 NA
HETATM   24  N8  LIG X 999      -4.148   0.617  -2.903  1.00  0.00    -0.162 NA
HETATM   25  N9  LIG X 999      -4.392   0.815  -4.092  1.00  0.00     0.068 N 
ENDBRANCH   9  23
BRANCH  11  26
HETATM   26  N4  LIG X 999      -1.317   1.092  -2.883  1.00  0.00    -0.067 NA
HETATM   27  N5  LIG X 999      -1.796   2.210  -2.682  1.00  0.00    -0.162 NA
HETATM   28  N6  LIG X 999      -2.272   3.326  -2.481  1.00  0.00     0.068 N 
ENDBRANCH  11  26
ENDBRANCH   1   4
TORSDOF 8
