REMARK  2 active torsions:
REMARK  status: ('A' for Active; 'I' for Inactive)
REMARK    1  A    between atoms: C2_3  and  C3_5 
REMARK    2  A    between atoms: C4_6  and  C5_7 
ROOT
HETATM    1  N1  LIG X 999       6.803   0.024   1.092  1.00  0.00    -0.187 NA
HETATM    2  C1  LIG X 999       5.834   0.610   1.331  1.00  0.00     0.152 C 
HETATM    3  C2  LIG X 999       4.632   1.336   1.628  1.00  0.00     0.305 C 
HETATM    4  O1  LIG X 999       4.683   2.373   2.339  1.00  0.00    -0.266 OA
ENDROOT
BRANCH   3   5
HETATM    5  C3  LIG X 999       3.372   0.880   1.113  1.00  0.00    -0.007 C 
HETATM    6  C4  LIG X 999       2.314   0.497   0.680  1.00  0.00    -0.058 C 
BRANCH   6   7
HETATM    7  C5  LIG X 999       1.051   0.039   0.163  1.00  0.00     0.019 A 
HETATM    8  C6  LIG X 999       1.014  -1.005  -0.769  1.00  0.00     0.021 A 
HETATM    9  C7  LIG X 999      -0.208  -1.455  -1.275  1.00  0.00     0.013 A 
HETATM   10  C8  LIG X 999      -1.407  -0.862  -0.853  1.00  0.00    -0.026 A 
HETATM   11  C9  LIG X 999      -2.641  -1.305  -1.355  1.00  0.00     0.012 A 
HETATM   12  C13 LIG X 999      -1.373   0.195   0.090  1.00  0.00    -0.025 A 
HETATM   13  C10 LIG X 999      -3.829  -0.706  -0.925  1.00  0.00     0.001 A 
HETATM   14  C11 LIG X 999      -3.795   0.336   0.005  1.00  0.00     0.001 A 
HETATM   15  C12 LIG X 999      -2.574   0.787   0.512  1.00  0.00     0.012 A 
HETATM   16  C14 LIG X 999      -0.140   0.639   0.593  1.00  0.00     0.032 A 
ENDBRANCH   6   7
ENDBRANCH   3   5
TORSDOF 2
