REMARK  0 active torsions:
REMARK  status: ('A' for Active; 'I' for Inactive)
ROOT
HETATM    1 CL1  LIG X 999       2.089   3.301  -0.574  1.00  0.00    -0.082 Cl
HETATM    2  C1  LIG X 999       1.008   1.917  -0.330  1.00  0.00     0.067 A 
HETATM    3  C2  LIG X 999      -0.378   2.134  -0.341  1.00  0.00     0.067 A 
HETATM    4 CL2  LIG X 999      -0.980   3.782  -0.599  1.00  0.00    -0.082 Cl
HETATM    5  C3  LIG X 999      -1.270   1.058  -0.150  1.00  0.00    -0.002 A 
HETATM    6  C4  LIG X 999      -2.666   1.276  -0.161  1.00  0.00     0.014 A 
HETATM    7  C5  LIG X 999      -3.556   0.223   0.026  1.00  0.00     0.001 A 
HETATM    8  C6  LIG X 999      -3.078  -1.064   0.227  1.00  0.00     0.001 A 
HETATM    9  C7  LIG X 999      -1.707  -1.310   0.243  1.00  0.00     0.013 A 
HETATM   10  C8  LIG X 999      -0.769  -0.262   0.056  1.00  0.00    -0.013 A 
HETATM   11  C9  LIG X 999       0.642  -0.482   0.067  1.00  0.00    -0.013 A 
HETATM   12  C10 LIG X 999       1.212  -1.767   0.267  1.00  0.00     0.013 A 
HETATM   13  C11 LIG X 999       2.594  -1.951   0.273  1.00  0.00     0.001 A 
HETATM   14  C12 LIG X 999       3.445  -0.872   0.082  1.00  0.00     0.001 A 
HETATM   15  C13 LIG X 999       2.922   0.401  -0.116  1.00  0.00     0.014 A 
HETATM   16  C14 LIG X 999       1.526   0.620  -0.128  1.00  0.00    -0.002 A 
ENDROOT
TORSDOF 0
