REMARK  5 active torsions:
REMARK  status: ('A' for Active; 'I' for Inactive)
REMARK    1  A    between atoms: C2_2  and  O1_4 
REMARK    2  A    between atoms: C2_2  and  C4_5 
REMARK    3  A    between atoms: C5_6  and  C6_7 
REMARK    4  A    between atoms: C8_9  and  N1_10 
REMARK    5  A    between atoms: C11_15  and  N2_16 
ROOT
HETATM    1  N2  LIG X 999      -3.448   3.385   1.661  1.00  0.00    -0.072 NA
HETATM    2  N3  LIG X 999      -3.962   4.487   1.459  1.00  0.00    -0.162 NA
HETATM    3  N4  LIG X 999      -4.475   5.587   1.259  1.00  0.00     0.068 N 
ENDROOT
BRANCH   1   4
HETATM    4  C11 LIG X 999      -2.384   2.866   0.845  1.00  0.00     0.104 A 
HETATM    5  C10 LIG X 999      -1.834   1.592   1.126  1.00  0.00     0.009 A 
HETATM    6  C9  LIG X 999      -2.316   0.819   2.200  1.00  0.00     0.051 A 
HETATM    7  C15 LIG X 999      -0.781   1.080   0.318  1.00  0.00    -0.005 A 
HETATM    8  C8  LIG X 999      -1.775  -0.444   2.485  1.00  0.00     0.105 A 
HETATM    9  C7  LIG X 999      -0.737  -0.940   1.681  1.00  0.00     0.057 A 
HETATM   10  C6  LIG X 999      -0.239  -0.194   0.608  1.00  0.00     0.031 A 
HETATM   11  C14 LIG X 999      -0.302   1.857  -0.756  1.00  0.00     0.014 A 
HETATM   12  C13 LIG X 999      -0.849   3.109  -1.026  1.00  0.00     0.003 A 
HETATM   13  C12 LIG X 999      -1.880   3.612  -0.236  1.00  0.00     0.035 A 
BRANCH   8  14
HETATM   14  N1  LIG X 999      -2.281  -1.221   3.588  1.00  0.00    -0.116 N 
HETATM   15  O2  LIG X 999      -1.805  -2.346   3.847  1.00  0.00    -0.532 OA
HETATM   16  O3  LIG X 999      -3.299  -0.736   4.377  1.00  0.00    -0.532 OA
ENDBRANCH   8  14
BRANCH  10  17
HETATM   17  C5  LIG X 999       0.831  -0.764  -0.179  1.00  0.00    -0.063 C 
HETATM   18  C4  LIG X 999       1.723  -1.237  -0.838  1.00  0.00    -0.064 C 
BRANCH  18  19
HETATM   19  C2  LIG X 999       2.810  -1.806  -1.648  1.00  0.00     0.114 C 
HETATM   20  C1  LIG X 999       2.302  -3.082  -2.339  1.00  0.00     0.060 C 
HETATM   21  C3  LIG X 999       3.251  -0.765  -2.690  1.00  0.00     0.060 C 
BRANCH  19  22
HETATM   22  O1  LIG X 999       3.879  -2.114  -0.789  1.00  0.00    -0.378 OA
HETATM   23  H7  LIG X 999       4.612  -2.498  -1.339  1.00  0.00     0.211 HD
ENDBRANCH  19  22
ENDBRANCH  18  19
ENDBRANCH  10  17
ENDBRANCH   1   4
TORSDOF 5
