REMARK  3 active torsions:
REMARK  status: ('A' for Active; 'I' for Inactive)
REMARK    1  A    between atoms: N3_3  and  C1_4 
REMARK    2  A    between atoms: C2_5  and  N4_6 
REMARK    3  A    between atoms: C10_16  and  N7_17 
ROOT
HETATM    1  N1  LIG X 999      -3.103  -3.867   1.698  1.00  0.00     0.068 N 
HETATM    2  N2  LIG X 999      -2.203  -3.309   1.072  1.00  0.00    -0.162 NA
HETATM    3  N3  LIG X 999      -1.297  -2.759   0.446  1.00  0.00    -0.068 NA
ENDROOT
BRANCH   3   4
HETATM    4  C1  LIG X 999      -1.181  -1.333   0.275  1.00  0.00     0.157 A 
HETATM    5  C2  LIG X 999       0.046  -0.804  -0.239  1.00  0.00     0.134 A 
HETATM    6  C3  LIG X 999       0.156   0.578  -0.403  1.00  0.00    -0.012 A 
HETATM    7  C4  LIG X 999      -0.866   1.401  -0.064  1.00  0.00    -0.008 A 
HETATM    8  C12 LIG X 999       1.327   1.380  -0.887  1.00  0.00     0.047 A 
HETATM    9  C5  LIG X 999      -0.548   2.713  -0.241  1.00  0.00    -0.046 A 
HETATM   10  C9  LIG X 999      -2.084   0.959   0.441  1.00  0.00     0.009 A 
HETATM   11  C6  LIG X 999      -1.461   3.710   0.102  1.00  0.00     0.008 A 
HETATM   12  C11 LIG X 999       0.839   2.850  -0.779  1.00  0.00     0.044 A 
HETATM   13  C7  LIG X 999      -2.702   3.323   0.641  1.00  0.00     0.002 A 
HETATM   14  C8  LIG X 999      -3.014   1.956   0.821  1.00  0.00     0.015 A 
HETATM   15  C10 LIG X 999      -2.272  -0.445   0.574  1.00  0.00     0.138 A 
BRANCH   5  16
HETATM   16  N4  LIG X 999       1.185  -1.611  -0.592  1.00  0.00    -0.069 NA
HETATM   17  N5  LIG X 999       1.220  -2.837  -0.489  1.00  0.00    -0.162 NA
HETATM   18  N6  LIG X 999       1.264  -4.063  -0.391  1.00  0.00     0.068 N 
ENDBRANCH   5  16
BRANCH  15  19
HETATM   19  N7  LIG X 999      -3.539  -0.990   0.973  1.00  0.00    -0.069 NA
HETATM   20  N8  LIG X 999      -4.608  -0.565   0.532  1.00  0.00    -0.162 NA
HETATM   21  N9  LIG X 999      -5.677  -0.146   0.091  1.00  0.00     0.068 N 
ENDBRANCH  15  19
ENDBRANCH   3   4
TORSDOF 3
