REMARK  2 active torsions:
REMARK  status: ('A' for Active; 'I' for Inactive)
REMARK    1  A    between atoms: N3_3  and  C1_4 
REMARK    2  A    between atoms: C3_6  and  N4_7 
ROOT
HETATM    1  N1  LIG X 999       6.344  -1.798  -0.476  1.00  0.00     0.068 N 
HETATM    2  N2  LIG X 999       5.723  -0.918   0.118  1.00  0.00    -0.162 NA
HETATM    3  N3  LIG X 999       5.108  -0.031   0.711  1.00  0.00    -0.072 NA
ENDROOT
BRANCH   3   4
HETATM    4  C1  LIG X 999       3.688   0.145   0.588  1.00  0.00     0.106 A 
HETATM    5  C2  LIG X 999       3.184   1.471   0.623  1.00  0.00     0.072 A 
HETATM    6  C3  LIG X 999       1.798   1.758   0.459  1.00  0.00     0.123 A 
HETATM    7  C4  LIG X 999       0.927   0.664   0.264  1.00  0.00     0.088 A 
HETATM    8  C5  LIG X 999       1.444  -0.604   0.268  1.00  0.00     0.020 A 
HETATM    9  N8  LIG X 999      -0.430   0.577   0.098  1.00  0.00    -0.259 N 
HETATM   10  C6  LIG X 999       2.778  -0.936   0.438  1.00  0.00     0.009 A 
HETATM   11  C10 LIG X 999       0.442  -1.510   0.126  1.00  0.00     0.022 A 
HETATM   12  C7  LIG X 999       3.078  -2.320   0.492  1.00  0.00     0.015 A 
HETATM   13  C8  LIG X 999       2.044  -3.281   0.336  1.00  0.00     0.002 A 
HETATM   14  C9  LIG X 999       0.704  -2.879   0.146  1.00  0.00     0.016 A 
HETATM   15  C11 LIG X 999      -0.710  -0.753   0.018  1.00  0.00     0.127 A 
HETATM   16  N7  LIG X 999      -1.976  -1.217  -0.135  1.00  0.00    -0.338 N 
HETATM   17  C12 LIG X 999      -3.011  -0.330  -0.220  1.00  0.00     0.086 A 
HETATM   18  H5  LIG X 999      -2.143  -2.247  -0.186  1.00  0.00     0.167 HD
HETATM   19  C13 LIG X 999      -4.335  -0.784  -0.379  1.00  0.00     0.135 A 
HETATM   20  C17 LIG X 999      -2.756   1.069  -0.148  1.00  0.00     0.062 A 
HETATM   21  O1  LIG X 999      -4.616  -2.144  -0.452  1.00  0.00    -0.190 OA
HETATM   22  C14 LIG X 999      -5.386   0.134  -0.467  1.00  0.00     0.042 A 
HETATM   23  C15 LIG X 999      -5.135   1.505  -0.398  1.00  0.00     0.004 A 
HETATM   24  C16 LIG X 999      -3.829   1.974  -0.240  1.00  0.00     0.020 A 
HETATM   25  C18 LIG X 999      -1.425   1.511   0.013  1.00  0.00     0.266 A 
HETATM   26  O2  LIG X 999      -1.173   2.742   0.066  1.00  0.00    -0.267 OA
BRANCH   6  27
HETATM   27  N4  LIG X 999       1.318   3.106   0.501  1.00  0.00    -0.070 NA
HETATM   28  N5  LIG X 999       2.065   4.071   0.675  1.00  0.00    -0.162 NA
HETATM   29  N6  LIG X 999       2.809   5.035   0.849  1.00  0.00     0.068 N 
ENDBRANCH   6  27
ENDBRANCH   3   4
TORSDOF 2
