REMARK  1 active torsions:
REMARK  status: ('A' for Active; 'I' for Inactive)
REMARK    1  A    between atoms: N3_3  and  C1_4 
ROOT
HETATM    1  N1  LIG X 999      -3.023  -2.778  -0.305  1.00  0.00     0.068 N 
HETATM    2  N2  LIG X 999      -2.792  -1.618  -0.644  1.00  0.00    -0.162 NA
HETATM    3  N3  LIG X 999      -2.565  -0.456  -0.982  1.00  0.00    -0.070 NA
ENDROOT
BRANCH   3   4
HETATM    4  C1  LIG X 999      -1.494   0.308  -0.406  1.00  0.00     0.127 A 
HETATM    5  C2  LIG X 999      -1.780   1.607   0.048  1.00  0.00     0.091 A 
HETATM    6 CL1  LIG X 999      -3.407   2.261  -0.152  1.00  0.00    -0.080 Cl
HETATM    7  C3  LIG X 999      -0.792   2.371   0.689  1.00  0.00     0.095 A 
HETATM    8 CL2  LIG X 999      -1.155   3.989   1.287  1.00  0.00    -0.079 Cl
HETATM    9  C4  LIG X 999       0.494   1.850   0.869  1.00  0.00     0.141 A 
HETATM   10  O1  LIG X 999       1.455   2.616   1.524  1.00  0.00    -0.189 OA
HETATM   11  C5  LIG X 999       0.815   0.570   0.383  1.00  0.00     0.015 A 
HETATM   12  C6  LIG X 999       2.117   0.056   0.533  1.00  0.00     0.015 A 
HETATM   13  C10 LIG X 999      -0.175  -0.205  -0.281  1.00  0.00     0.010 A 
HETATM   14  C7  LIG X 999       2.450  -1.192   0.008  1.00  0.00     0.001 A 
HETATM   15  C8  LIG X 999       1.498  -1.936  -0.683  1.00  0.00     0.001 A 
HETATM   16  C9  LIG X 999       0.199  -1.448  -0.837  1.00  0.00     0.015 A 
ENDBRANCH   3   4
TORSDOF 1
