REMARK  4 active torsions:
REMARK  status: ('A' for Active; 'I' for Inactive)
REMARK    1  A    between atoms: N3_3  and  C1_4 
REMARK    2  A    between atoms: C1_4  and  C2_5 
REMARK    3  A    between atoms: C2_5  and  O1_6 
REMARK    4  A    between atoms: O1_6  and  C3_7 
ROOT
HETATM    1  N1  LIG X 999       2.100  -2.833   0.635  1.00  0.00     0.068 N 
HETATM    2  N2  LIG X 999       2.632  -1.753   0.386  1.00  0.00    -0.168 NA
HETATM    3  N3  LIG X 999       3.163  -0.671   0.137  1.00  0.00    -0.113 NA
ENDROOT
BRANCH   3   4
HETATM    4  C1  LIG X 999       3.369  -0.233  -1.238  1.00  0.00     0.216 C 
BRANCH   4   5
HETATM    5  C2  LIG X 999       2.615   1.069  -1.510  1.00  0.00     0.200 C 
BRANCH   5   6
HETATM    6  O1  LIG X 999       1.203   0.846  -1.542  1.00  0.00    -0.348 OA
BRANCH   6   7
HETATM    7  C3  LIG X 999       0.346   0.744  -0.430  1.00  0.00     0.079 A 
HETATM    8  C4  LIG X 999       0.752   1.126   0.866  1.00  0.00     0.037 A 
HETATM    9  C5  LIG X 999      -0.123   1.012   1.947  1.00  0.00     0.004 A 
HETATM   10  C6  LIG X 999      -1.415   0.524   1.762  1.00  0.00     0.012 A 
HETATM   11  C7  LIG X 999      -1.847   0.146   0.484  1.00  0.00    -0.023 A 
HETATM   12  C8  LIG X 999      -3.149  -0.344   0.294  1.00  0.00     0.012 A 
HETATM   13  C12 LIG X 999      -0.965   0.257  -0.622  1.00  0.00     0.007 A 
HETATM   14  C9  LIG X 999      -3.579  -0.722  -0.979  1.00  0.00     0.001 A 
HETATM   15  C10 LIG X 999      -2.716  -0.616  -2.071  1.00  0.00     0.001 A 
HETATM   16  C11 LIG X 999      -1.417  -0.131  -1.898  1.00  0.00     0.015 A 
ENDBRANCH   6   7
ENDBRANCH   5   6
ENDBRANCH   4   5
ENDBRANCH   3   4
TORSDOF 4
