REMARK  2 active torsions:
REMARK  status: ('A' for Active; 'I' for Inactive)
REMARK    1  A    between atoms: N3_3  and  C1_4 
REMARK    2  A    between atoms: C6_9  and  N4_10 
ROOT
HETATM    1  N1  LIG X 999      -0.494   4.612   1.236  1.00  0.00     0.068 N 
HETATM    2  N2  LIG X 999      -0.319   3.604   0.554  1.00  0.00    -0.162 NA
HETATM    3  N3  LIG X 999      -0.142   2.595  -0.131  1.00  0.00    -0.072 NA
ENDROOT
BRANCH   3   4
HETATM    4  C1  LIG X 999      -0.827   1.357   0.125  1.00  0.00     0.104 A 
HETATM    5  C2  LIG X 999      -1.745   1.250   1.184  1.00  0.00     0.035 A 
HETATM    6  C3  LIG X 999      -2.422   0.056   1.416  1.00  0.00     0.003 A 
HETATM    7  C4  LIG X 999      -2.184  -1.058   0.615  1.00  0.00     0.015 A 
HETATM    8  C5  LIG X 999      -1.245  -1.002  -0.434  1.00  0.00     0.005 A 
HETATM    9  C6  LIG X 999      -0.972  -2.131  -1.256  1.00  0.00     0.069 A 
HETATM   10  C11 LIG X 999      -0.583   0.232  -0.699  1.00  0.00     0.008 A 
HETATM   11  C8  LIG X 999      -0.124  -1.991  -2.360  1.00  0.00     0.032 A 
HETATM   12  C9  LIG X 999       0.510  -0.779  -2.623  1.00  0.00     0.003 A 
HETATM   13  C10 LIG X 999       0.297   0.320  -1.794  1.00  0.00     0.015 A 
BRANCH   9  14
HETATM   14  N4  LIG X 999      -1.536  -3.428  -1.015  1.00  0.00    -0.233 NA
HETATM   15  C7  LIG X 999      -1.425  -4.025   0.104  1.00  0.00     0.163 C 
HETATM   16  S1  LIG X 999      -1.283  -4.779   1.520  1.00  0.00    -0.055 SA
ENDBRANCH   9  14
ENDBRANCH   3   4
TORSDOF 2
