REMARK  3 active torsions:
REMARK  status: ('A' for Active; 'I' for Inactive)
REMARK       I    between atoms: N3_3  and  C1_4 
REMARK    1  A    between atoms: C1_4  and  C2_6 
REMARK    2  A    between atoms: C4_8  and  N4_9 
REMARK    3  A    between atoms: C10_16  and  N5_17 
ROOT
HETATM    1  N1  LIG X 999      -1.775   4.864   2.034  1.00  0.00     0.068 N 
HETATM    2  N2  LIG X 999      -1.734   3.776   1.462  1.00  0.00    -0.159 NA
HETATM    3  N3  LIG X 999      -1.694   2.687   0.889  1.00  0.00    -0.028 NA
HETATM    4  C1  LIG X 999      -0.451   2.020   0.643  1.00  0.00     0.308 C 
HETATM    5  O1  LIG X 999       0.628   2.555   1.020  1.00  0.00    -0.263 OA
ENDROOT
BRANCH   4   6
HETATM    6  C2  LIG X 999      -0.430   0.706  -0.049  1.00  0.00     0.040 A 
HETATM    7  C3  LIG X 999      -1.625   0.103  -0.462  1.00  0.00     0.050 A 
HETATM    8  C4  LIG X 999      -1.623  -1.132  -1.136  1.00  0.00     0.070 A 
HETATM    9  C6  LIG X 999      -0.393  -1.780  -1.389  1.00  0.00     0.005 A 
HETATM   10  C7  LIG X 999      -0.362  -3.005  -2.084  1.00  0.00     0.015 A 
HETATM   11  C11 LIG X 999       0.830  -1.195  -0.951  1.00  0.00     0.004 A 
HETATM   12  C8  LIG X 999       0.847  -3.641  -2.348  1.00  0.00     0.003 A 
HETATM   13  C9  LIG X 999       2.043  -3.082  -1.913  1.00  0.00     0.030 A 
HETATM   14  C10 LIG X 999       2.056  -1.874  -1.201  1.00  0.00     0.037 A 
HETATM   15  C12 LIG X 999       0.788   0.056  -0.301  1.00  0.00     0.031 A 
BRANCH   8  16
HETATM   16  N4  LIG X 999      -2.853  -1.742  -1.572  1.00  0.00    -0.233 NA
HETATM   17  C5  LIG X 999      -4.009  -1.238  -1.393  1.00  0.00     0.163 C 
HETATM   18  S1  LIG X 999      -5.472  -0.601  -1.167  1.00  0.00    -0.055 SA
ENDBRANCH   8  16
BRANCH  14  19
HETATM   19  N5  LIG X 999       3.323  -1.382  -0.735  1.00  0.00    -0.398 N 
HETATM   20  H5  LIG X 999       4.210  -1.825  -1.063  1.00  0.00     0.156 HD
HETATM   21  H6  LIG X 999       3.414  -0.682   0.031  1.00  0.00     0.156 HD
ENDBRANCH  14  19
ENDBRANCH   4   6
TORSDOF 3
