REMARK  3 active torsions:
REMARK  status: ('A' for Active; 'I' for Inactive)
REMARK       I    between atoms: N3_3  and  C1_4 
REMARK    1  A    between atoms: C1_4  and  C2_6 
REMARK    2  A    between atoms: C6_10  and  N4_11 
REMARK    3  A    between atoms: C11_16  and  N5_17 
ROOT
HETATM    1  N1  LIG X 999       4.847  -3.992  -1.091  1.00  0.00     0.068 N 
HETATM    2  N2  LIG X 999       3.801  -3.373  -0.907  1.00  0.00    -0.159 NA
HETATM    3  N3  LIG X 999       2.753  -2.753  -0.723  1.00  0.00    -0.028 NA
HETATM    4  C1  LIG X 999       2.586  -1.412  -1.197  1.00  0.00     0.311 C 
HETATM    5  O1  LIG X 999       3.536  -0.849  -1.809  1.00  0.00    -0.263 OA
ENDROOT
BRANCH   4   6
HETATM    6  C2  LIG X 999       1.308  -0.688  -0.950  1.00  0.00     0.066 A 
HETATM    7  C3  LIG X 999       0.431  -1.182   0.025  1.00  0.00     0.020 A 
HETATM    8  C4  LIG X 999      -0.780  -0.551   0.293  1.00  0.00     0.016 A 
HETATM    9  C5  LIG X 999      -1.155   0.617  -0.393  1.00  0.00     0.003 A 
HETATM   10  C6  LIG X 999      -2.379   1.288  -0.117  1.00  0.00     0.036 A 
HETATM   11  C10 LIG X 999      -0.261   1.157  -1.363  1.00  0.00     0.006 A 
HETATM   12  C7  LIG X 999      -2.656   2.506  -0.750  1.00  0.00     0.030 A 
HETATM   13  C8  LIG X 999      -1.759   3.056  -1.658  1.00  0.00     0.003 A 
HETATM   14  C9  LIG X 999      -0.575   2.392  -1.966  1.00  0.00     0.015 A 
HETATM   15  C11 LIG X 999       0.945   0.471  -1.679  1.00  0.00     0.085 A 
BRANCH  10  16
HETATM   16  N4  LIG X 999      -3.364   0.757   0.784  1.00  0.00    -0.398 N 
HETATM   17  H3  LIG X 999      -4.181   1.341   1.073  1.00  0.00     0.156 HD
HETATM   18  H4  LIG X 999      -3.386  -0.243   1.075  1.00  0.00     0.156 HD
ENDBRANCH  10  16
BRANCH  15  19
HETATM   19  N5  LIG X 999       1.800   0.923  -2.741  1.00  0.00    -0.232 NA
HETATM   20  C12 LIG X 999       1.393   1.016  -3.944  1.00  0.00     0.163 C 
HETATM   21  S1  LIG X 999       0.875   1.133  -5.465  1.00  0.00    -0.055 SA
ENDBRANCH  15  19
ENDBRANCH   4   6
TORSDOF 3
