REMARK  1 active torsions:
REMARK  status: ('A' for Active; 'I' for Inactive)
REMARK       I    between atoms: N1_1  and  C1_2 
REMARK    1  A    between atoms: C1_2  and  C2_4 
ROOT
HETATM    1  C2  LIG X 999       1.789  -0.062   0.233  1.00  0.00     0.034 A 
HETATM    2  C3  LIG X 999       1.427  -1.336  -0.243  1.00  0.00     0.018 A 
HETATM    3  C4  LIG X 999       0.091  -1.647  -0.506  1.00  0.00     0.013 A 
HETATM    4  C5  LIG X 999      -0.910  -0.689  -0.298  1.00  0.00    -0.026 A 
HETATM    5  C6  LIG X 999      -2.256  -0.992  -0.560  1.00  0.00     0.012 A 
HETATM    6  C7  LIG X 999      -3.246  -0.028  -0.349  1.00  0.00     0.001 A 
HETATM    7  C8  LIG X 999      -2.901   1.242   0.123  1.00  0.00     0.001 A 
HETATM    8  C9  LIG X 999      -1.565   1.556   0.387  1.00  0.00     0.012 A 
HETATM    9  C10 LIG X 999      -0.561   0.596   0.180  1.00  0.00    -0.025 A 
HETATM   10  C11 LIG X 999       0.784   0.900   0.442  1.00  0.00     0.029 A 
ENDROOT
BRANCH   1  11
HETATM   11  C1  LIG X 999       3.210   0.258   0.509  1.00  0.00     0.270 C 
HETATM   12  N1  LIG X 999       3.582   1.548   0.992  1.00  0.00    -0.263 NA
HETATM   13  H1  LIG X 999       4.581   1.780   1.188  1.00  0.00     0.190 HD
HETATM   14  O1  LIG X 999       4.106  -0.608   0.321  1.00  0.00    -0.266 OA
ENDBRANCH   1  11
TORSDOF 1
