REMARK  3 active torsions:
REMARK  status: ('A' for Active; 'I' for Inactive)
REMARK    1  A    between atoms: C2_2  and  C5_6 
REMARK    2  A    between atoms: C6_7  and  C7_8 
REMARK    3  A    between atoms: C9_10  and  N2_11 
ROOT
HETATM    1  C1  LIG X 999       4.456   1.741   0.251  1.00  0.00     0.045 C 
HETATM    2  C2  LIG X 999       3.811   0.861  -0.829  1.00  0.00     0.105 C 
HETATM    3  C3  LIG X 999       4.454  -0.533  -0.837  1.00  0.00     0.045 C 
HETATM    4  C4  LIG X 999       3.987   1.491  -2.147  1.00  0.00     0.081 C 
HETATM    5  N1  LIG X 999       4.126   1.987  -3.183  1.00  0.00    -0.195 NA
ENDROOT
BRANCH   2   6
HETATM    6  C5  LIG X 999       2.370   0.733  -0.561  1.00  0.00    -0.076 C 
HETATM    7  C6  LIG X 999       1.190   0.621  -0.340  1.00  0.00    -0.064 C 
BRANCH   7   8
HETATM    8  C7  LIG X 999      -0.219   0.481  -0.074  1.00  0.00     0.031 A 
HETATM    9  C8  LIG X 999      -1.037   1.641  -0.035  1.00  0.00     0.058 A 
HETATM   10  C9  LIG X 999      -2.428   1.558   0.219  1.00  0.00     0.122 A 
HETATM   11  C10 LIG X 999      -2.972   0.279   0.450  1.00  0.00     0.079 A 
HETATM   12  C11 LIG X 999      -2.161  -0.824   0.405  1.00  0.00     0.021 A 
HETATM   13  N5  LIG X 999      -4.308  -0.110   0.798  1.00  0.00    -0.320 N 
HETATM   14  C12 LIG X 999      -2.849  -1.966   0.688  1.00  0.00     0.045 A 
HETATM   15  C16 LIG X 999      -0.798  -0.788   0.155  1.00  0.00    -0.004 A 
HETATM   16  C13 LIG X 999      -2.202  -3.200   0.726  1.00  0.00     0.018 A 
HETATM   17  C17 LIG X 999      -4.216  -1.533   0.947  1.00  0.00     0.257 A 
HETATM   18  C14 LIG X 999      -0.815  -3.223   0.456  1.00  0.00     0.002 A 
HETATM   19  C15 LIG X 999      -0.110  -2.024   0.173  1.00  0.00     0.014 A 
HETATM   20  O1  LIG X 999      -5.176  -2.273   1.284  1.00  0.00    -0.267 OA
HETATM   21  H11 LIG X 999      -5.119   0.486   1.064  1.00  0.00     0.169 HD
BRANCH  10  22
HETATM   22  N2  LIG X 999      -3.200   2.768   0.219  1.00  0.00    -0.070 NA
HETATM   23  N3  LIG X 999      -4.430   2.787   0.152  1.00  0.00    -0.162 NA
HETATM   24  N4  LIG X 999      -5.657   2.821   0.080  1.00  0.00     0.068 N 
ENDBRANCH  10  22
ENDBRANCH   7   8
ENDBRANCH   2   6
TORSDOF 3
