REMARK  4 active torsions:
REMARK  status: ('A' for Active; 'I' for Inactive)
REMARK    1  A    between atoms: C3_3  and  O1_4 
REMARK    2  A    between atoms: O1_4  and  C4_5 
REMARK    3  A    between atoms: C6_7  and  N1_8 
REMARK    4  A    between atoms: C11_16  and  N4_17 
ROOT
HETATM    1  C1  LIG X 999       2.519   2.287  -3.411  1.00  0.00     0.014 C 
HETATM    2  C2  LIG X 999       1.353   1.988  -3.473  1.00  0.00    -0.091 C 
HETATM    3  C3  LIG X 999      -0.066   1.622  -3.547  1.00  0.00     0.268 C 
ENDROOT
BRANCH   3   4
HETATM    4  O1  LIG X 999      -0.655   1.646  -2.247  1.00  0.00    -0.339 OA
BRANCH   4   5
HETATM    5  C4  LIG X 999      -0.404   0.721  -1.219  1.00  0.00     0.073 A 
HETATM    6  C5  LIG X 999       0.450  -0.376  -1.380  1.00  0.00     0.072 A 
HETATM    7  C6  LIG X 999       0.682  -1.282  -0.328  1.00  0.00     0.108 A 
HETATM    8  C7  LIG X 999       0.035  -1.088   0.929  1.00  0.00     0.030 A 
HETATM    9  C8  LIG X 999       0.215  -1.960   2.044  1.00  0.00     0.047 A 
HETATM   10  C13 LIG X 999      -0.839   0.034   1.082  1.00  0.00     0.010 A 
HETATM   11 CL1  LIG X 999       1.247  -3.392   2.050  1.00  0.00    -0.083 Cl
HETATM   12  C9  LIG X 999      -0.452  -1.709   3.244  1.00  0.00     0.027 A 
HETATM   13  C10 LIG X 999      -1.297  -0.617   3.381  1.00  0.00     0.034 A 
HETATM   14  C11 LIG X 999      -1.503   0.266   2.311  1.00  0.00     0.070 A 
HETATM   15  C14 LIG X 999      -1.039   0.915   0.003  1.00  0.00     0.051 A 
BRANCH   7  16
HETATM   16  N1  LIG X 999       1.572  -2.391  -0.538  1.00  0.00    -0.072 NA
HETATM   17  N2  LIG X 999       2.156  -2.591  -1.605  1.00  0.00    -0.162 NA
HETATM   18  N3  LIG X 999       2.741  -2.792  -2.668  1.00  0.00     0.068 N 
ENDBRANCH   7  16
BRANCH  14  19
HETATM   19  N4  LIG X 999      -2.380   1.401   2.448  1.00  0.00    -0.233 NA
HETATM   20  C12 LIG X 999      -3.019   1.692   3.511  1.00  0.00     0.163 C 
HETATM   21  S1  LIG X 999      -3.829   2.060   4.855  1.00  0.00    -0.055 SA
ENDBRANCH  14  19
ENDBRANCH   4   5
ENDBRANCH   3   4
TORSDOF 4
