REMARK  5 active torsions:
REMARK  status: ('A' for Active; 'I' for Inactive)
REMARK    1  A    between atoms: C2_2  and  O1_4 
REMARK    2  A    between atoms: C2_2  and  C4_5 
REMARK    3  A    between atoms: C5_6  and  C6_7 
REMARK    4  A    between atoms: C8_9  and  N1_10 
REMARK    5  A    between atoms: C13_17  and  N4_18 
ROOT
HETATM    1  N1  LIG X 999       2.773  -2.444   2.151  1.00  0.00    -0.072 NA
HETATM    2  N2  LIG X 999       3.487  -1.593   2.684  1.00  0.00    -0.162 NA
HETATM    3  N3  LIG X 999       4.202  -0.745   3.217  1.00  0.00     0.068 N 
ENDROOT
BRANCH   1   4
HETATM    4  C8  LIG X 999       1.553  -2.111   1.465  1.00  0.00     0.105 A 
HETATM    5  C7  LIG X 999       1.121  -0.776   1.376  1.00  0.00     0.056 A 
HETATM    6  C6  LIG X 999      -0.063  -0.454   0.710  1.00  0.00     0.021 A 
HETATM    7  C16 LIG X 999      -0.835  -1.459   0.123  1.00  0.00     0.035 A 
HETATM    8  C15 LIG X 999      -0.431  -2.806   0.194  1.00  0.00     0.007 A 
HETATM    9  C9  LIG X 999       0.776  -3.134   0.873  1.00  0.00     0.008 A 
HETATM   10  C13 LIG X 999      -1.209  -3.830  -0.399  1.00  0.00     0.069 A 
HETATM   11  C10 LIG X 999       1.179  -4.480   0.944  1.00  0.00     0.015 A 
HETATM   12  C11 LIG X 999       0.410  -5.483   0.359  1.00  0.00     0.003 A 
HETATM   13  C12 LIG X 999      -0.772  -5.166  -0.306  1.00  0.00     0.032 A 
BRANCH   6  14
HETATM   14  C5  LIG X 999      -0.490   0.918   0.628  1.00  0.00    -0.064 C 
HETATM   15  C4  LIG X 999      -0.847   2.068   0.559  1.00  0.00    -0.064 C 
BRANCH  15  16
HETATM   16  C2  LIG X 999      -1.284   3.475   0.474  1.00  0.00     0.114 C 
HETATM   17  C1  LIG X 999      -1.561   3.843  -0.993  1.00  0.00     0.060 C 
HETATM   18  C3  LIG X 999      -0.177   4.374   1.036  1.00  0.00     0.060 C 
BRANCH  16  19
HETATM   19  O1  LIG X 999      -2.444   3.660   1.248  1.00  0.00    -0.378 OA
HETATM   20  H7  LIG X 999      -3.158   3.075   0.878  1.00  0.00     0.211 HD
ENDBRANCH  16  19
ENDBRANCH  15  16
ENDBRANCH   6  14
BRANCH  10  21
HETATM   21  N4  LIG X 999      -2.430  -3.492  -1.085  1.00  0.00    -0.233 NA
HETATM   22  C14 LIG X 999      -3.194  -4.341  -1.648  1.00  0.00     0.163 C 
HETATM   23  S1  LIG X 999      -4.162  -5.415  -2.360  1.00  0.00    -0.055 SA
ENDBRANCH  10  21
ENDBRANCH   1   4
TORSDOF 5
