REMARK  4 active torsions:
REMARK  status: ('A' for Active; 'I' for Inactive)
REMARK    1  A    between atoms: C2_2  and  O1_4 
REMARK    2  A    between atoms: C2_2  and  C4_5 
REMARK    3  A    between atoms: C5_6  and  C6_7 
REMARK    4  A    between atoms: C8_9  and  N1_10 
ROOT
HETATM    1  N1  LIG X 999       1.651  -2.427  -3.266  1.00  0.00    -0.072 NA
HETATM    2  N2  LIG X 999       2.838  -2.101  -3.239  1.00  0.00    -0.162 NA
HETATM    3  N3  LIG X 999       4.024  -1.776  -3.214  1.00  0.00     0.068 N 
ENDROOT
BRANCH   1   4
HETATM    4  C8  LIG X 999       0.722  -2.051  -2.235  1.00  0.00     0.105 A 
HETATM    5  C7  LIG X 999       1.141  -1.282  -1.132  1.00  0.00     0.056 A 
HETATM    6  C6  LIG X 999       0.235  -0.918  -0.130  1.00  0.00     0.021 A 
HETATM    7  C15 LIG X 999      -1.102  -1.317  -0.214  1.00  0.00     0.033 A 
HETATM    8  C14 LIG X 999      -1.543  -2.083  -1.302  1.00  0.00    -0.022 A 
HETATM    9  C9  LIG X 999      -0.630  -2.457  -2.323  1.00  0.00     0.006 A 
HETATM   10  C13 LIG X 999      -2.886  -2.483  -1.384  1.00  0.00     0.012 A 
HETATM   11  C10 LIG X 999      -1.096  -3.227  -3.406  1.00  0.00     0.014 A 
HETATM   12  C11 LIG X 999      -2.436  -3.617  -3.474  1.00  0.00     0.001 A 
HETATM   13  C12 LIG X 999      -3.328  -3.247  -2.466  1.00  0.00     0.001 A 
BRANCH   6  14
HETATM   14  C5  LIG X 999       0.680  -0.132   0.990  1.00  0.00    -0.064 C 
HETATM   15  C4  LIG X 999       1.053   0.526   1.929  1.00  0.00    -0.064 C 
BRANCH  15  16
HETATM   16  C2  LIG X 999       1.507   1.328   3.075  1.00  0.00     0.114 C 
HETATM   17  C1  LIG X 999       0.370   1.413   4.106  1.00  0.00     0.060 C 
HETATM   18  C3  LIG X 999       2.747   0.660   3.691  1.00  0.00     0.060 C 
BRANCH  16  19
HETATM   19  O1  LIG X 999       1.833   2.614   2.607  1.00  0.00    -0.378 OA
HETATM   20  H7  LIG X 999       2.139   3.152   3.383  1.00  0.00     0.211 HD
ENDBRANCH  16  19
ENDBRANCH  15  16
ENDBRANCH   6  14
ENDBRANCH   1   4
TORSDOF 4
