REMARK  2 active torsions:
REMARK  status: ('A' for Active; 'I' for Inactive)
REMARK       I    between atoms: N3_3  and  C1_4 
REMARK    1  A    between atoms: C1_4  and  C2_6 
REMARK    2  A    between atoms: C11_15  and  N4_16 
ROOT
HETATM    1  N1  LIG X 999       3.929  -1.241  -2.047  1.00  0.00     0.068 N 
HETATM    2  N2  LIG X 999       3.937  -0.991  -0.843  1.00  0.00    -0.159 NA
HETATM    3  N3  LIG X 999       3.946  -0.741   0.363  1.00  0.00    -0.028 NA
HETATM    4  C1  LIG X 999       2.755  -0.378   1.071  1.00  0.00     0.311 C 
HETATM    5  O1  LIG X 999       2.849  -0.011   2.272  1.00  0.00    -0.263 OA
ENDROOT
BRANCH   4   6
HETATM    6  C2  LIG X 999       1.418  -0.448   0.437  1.00  0.00     0.069 A 
HETATM    7  C3  LIG X 999       1.021  -1.669  -0.128  1.00  0.00     0.020 A 
HETATM    8  C4  LIG X 999      -0.266  -1.840  -0.630  1.00  0.00     0.013 A 
HETATM    9  C5  LIG X 999      -1.194  -0.797  -0.562  1.00  0.00    -0.024 A 
HETATM   10  C6  LIG X 999      -2.497  -0.983  -1.052  1.00  0.00     0.012 A 
HETATM   11  C10 LIG X 999      -0.817   0.450  -0.001  1.00  0.00     0.007 A 
HETATM   12  C7  LIG X 999      -3.426   0.057  -0.989  1.00  0.00     0.001 A 
HETATM   13  C8  LIG X 999      -3.065   1.288  -0.441  1.00  0.00     0.001 A 
HETATM   14  C9  LIG X 999      -1.772   1.488   0.049  1.00  0.00     0.015 A 
HETATM   15  C11 LIG X 999       0.502   0.638   0.479  1.00  0.00     0.120 A 
BRANCH  15  16
HETATM   16  N4  LIG X 999       0.876   1.936   0.978  1.00  0.00    -0.071 NA
HETATM   17  N5  LIG X 999       2.021   2.383   0.892  1.00  0.00    -0.162 NA
HETATM   18  N6  LIG X 999       3.161   2.835   0.805  1.00  0.00     0.068 N 
ENDBRANCH  15  16
ENDBRANCH   4   6
TORSDOF 2
