REMARK  1 active torsions:
REMARK  status: ('A' for Active; 'I' for Inactive)
REMARK    1  A    between atoms: N1_1  and  C1_2 
ROOT
HETATM    1  C1  LIG X 999       1.480  -0.383   0.065  1.00  0.00     0.036 A 
HETATM    2  C2  LIG X 999       2.162   0.844   0.109  1.00  0.00     0.030 A 
HETATM    3  C3  LIG X 999       1.469   2.052   0.076  1.00  0.00     0.003 A 
HETATM    4  C4  LIG X 999       0.079   2.061  -0.000  1.00  0.00     0.012 A 
HETATM    5  C5  LIG X 999      -0.635   0.856  -0.035  1.00  0.00    -0.024 A 
HETATM    6  C6  LIG X 999      -2.037   0.880  -0.102  1.00  0.00     0.012 A 
HETATM    7  C7  LIG X 999      -2.761  -0.311  -0.123  1.00  0.00     0.001 A 
HETATM    8  C8  LIG X 999      -2.095  -1.535  -0.073  1.00  0.00     0.001 A 
HETATM    9  C9  LIG X 999      -0.700  -1.579  -0.007  1.00  0.00     0.014 A 
HETATM   10  C10 LIG X 999       0.059  -0.387   0.004  1.00  0.00     0.000 A 
ENDROOT
BRANCH   1  11
HETATM   11  N1  LIG X 999       2.260  -1.589   0.073  1.00  0.00    -0.398 N 
HETATM   12  H1  LIG X 999       1.863  -2.532  -0.118  1.00  0.00     0.156 HD
HETATM   13  H2  LIG X 999       3.296  -1.542   0.201  1.00  0.00     0.156 HD
ENDBRANCH   1  11
TORSDOF 1
