REMARK  2 active torsions:
REMARK  status: ('A' for Active; 'I' for Inactive)
REMARK       I    between atoms: C1_2  and  N1_3 
REMARK       I    between atoms: C1_2  and  N2_14 
REMARK    1  A    between atoms: N1_3  and  C2_4 
REMARK    2  A    between atoms: N2_14  and  C12_15 
ROOT
HETATM    1  O1  LIG X 999      -1.111   1.001  -2.794  1.00  0.00    -0.245 OA
HETATM    2  C1  LIG X 999      -0.702   0.651  -1.655  1.00  0.00     0.343 C 
HETATM    3  N1  LIG X 999       0.666   0.258  -1.501  1.00  0.00    -0.194 NA
HETATM    4  N2  LIG X 999      -1.615   0.587  -0.549  1.00  0.00    -0.333 N 
HETATM    5  H8  LIG X 999      -1.339   0.029   0.291  1.00  0.00     0.165 HD
ENDROOT
BRANCH   3   6
HETATM    6  C2  LIG X 999       1.412   0.261  -0.273  1.00  0.00     0.073 A 
HETATM    7  C3  LIG X 999       1.129   1.203   0.733  1.00  0.00     0.032 A 
HETATM    8  C4  LIG X 999       1.869   1.225   1.916  1.00  0.00     0.003 A 
HETATM    9  C5  LIG X 999       2.915   0.323   2.109  1.00  0.00     0.012 A 
HETATM   10  C6  LIG X 999       3.236  -0.608   1.111  1.00  0.00    -0.024 A 
HETATM   11  C7  LIG X 999       4.297  -1.507   1.299  1.00  0.00     0.012 A 
HETATM   12  C11 LIG X 999       2.487  -0.639  -0.095  1.00  0.00     0.003 A 
HETATM   13  C8  LIG X 999       4.619  -2.432   0.304  1.00  0.00     0.001 A 
HETATM   14  C9  LIG X 999       3.887  -2.469  -0.884  1.00  0.00     0.001 A 
HETATM   15  C10 LIG X 999       2.827  -1.581  -1.086  1.00  0.00     0.014 A 
ENDBRANCH   3   6
BRANCH   4  16
HETATM   16  C12 LIG X 999      -2.995   1.067  -0.639  1.00  0.00     0.124 C 
HETATM   17  C13 LIG X 999      -3.903  -0.089  -0.978  1.00  0.00     0.011 C 
HETATM   18  C14 LIG X 999      -4.749  -0.467  -0.029  1.00  0.00     0.107 C 
HETATM   19  S1  LIG X 999      -4.632   0.527   1.379  1.00  0.00     0.167 S 
HETATM   20  O2  LIG X 999      -5.934   1.199   1.710  1.00  0.00    -0.223 OA
HETATM   21  O3  LIG X 999      -4.082  -0.227   2.557  1.00  0.00    -0.223 OA
HETATM   22  C15 LIG X 999      -3.449   1.666   0.711  1.00  0.00     0.174 C 
ENDBRANCH   4  16
TORSDOF 2
