REMARK  3 active torsions:
REMARK  status: ('A' for Active; 'I' for Inactive)
REMARK    1  A    between atoms: N1_1  and  C1_2 
REMARK    2  A    between atoms: C5_7  and  O1_8 
REMARK    3  A    between atoms: C6_9  and  C7_10 
ROOT
HETATM    1  C1  LIG X 999       0.266  -0.705   0.972  1.00  0.00     0.043 A 
HETATM    2  C2  LIG X 999       0.921  -0.817  -0.263  1.00  0.00     0.054 A 
HETATM    3  C3  LIG X 999       0.431  -0.162  -1.391  1.00  0.00     0.038 A 
HETATM    4 CL1  LIG X 999       1.276  -0.299  -2.922  1.00  0.00    -0.084 Cl
HETATM    5  C4  LIG X 999      -0.727   0.610  -1.300  1.00  0.00     0.061 A 
HETATM    6  C5  LIG X 999      -1.417   0.719  -0.089  1.00  0.00     0.082 A 
HETATM    7  C6  LIG X 999      -0.930   0.056   1.066  1.00  0.00     0.061 A 
ENDROOT
BRANCH   1   8
HETATM    8  N1  LIG X 999       0.863  -1.323   2.121  1.00  0.00    -0.398 N 
HETATM    9  H1  LIG X 999       0.583  -1.076   3.095  1.00  0.00     0.156 HD
HETATM   10  H2  LIG X 999       1.685  -1.958   2.012  1.00  0.00     0.156 HD
ENDBRANCH   1   8
BRANCH   7  11
HETATM   11  C7  LIG X 999      -1.677   0.156   2.338  1.00  0.00     0.275 C 
HETATM   12  O2  LIG X 999      -1.849  -0.855   3.068  1.00  0.00    -0.301 OA
ENDBRANCH   7  11
BRANCH   6  13
HETATM   13  O1  LIG X 999      -2.594   1.472  -0.079  1.00  0.00    -0.360 OA
HETATM   14  H5  LIG X 999      -3.197   1.557   0.728  1.00  0.00     0.217 HD
ENDBRANCH   6  13
TORSDOF 3
