REMARK  2 active torsions:
REMARK  status: ('A' for Active; 'I' for Inactive)
REMARK    1  A    between atoms: N1_1  and  C1_2 
REMARK    2  A    between atoms: C6_9  and  C7_10 
ROOT
HETATM    1  C1  LIG X 999      -0.198  -0.826  -0.048  1.00  0.00     0.043 A 
HETATM    2  C2  LIG X 999       1.139  -0.970  -0.452  1.00  0.00     0.054 A 
HETATM    3  C3  LIG X 999       1.978   0.140  -0.551  1.00  0.00     0.039 A 
HETATM    4 CL1  LIG X 999       3.650  -0.064  -1.041  1.00  0.00    -0.084 Cl
HETATM    5  C4  LIG X 999       1.491   1.410  -0.244  1.00  0.00     0.065 A 
HETATM    6  C5  LIG X 999       0.158   1.581   0.139  1.00  0.00     0.124 A 
HETATM    7  O1  LIG X 999      -0.301   2.865   0.416  1.00  0.00    -0.191 OA
HETATM    8  C6  LIG X 999      -0.710   0.472   0.225  1.00  0.00     0.064 A 
ENDROOT
BRANCH   1   9
HETATM    9  N1  LIG X 999      -0.988  -2.009   0.135  1.00  0.00    -0.398 N 
HETATM   10  H1  LIG X 999      -1.842  -2.018   0.733  1.00  0.00     0.156 HD
HETATM   11  H2  LIG X 999      -0.637  -2.934  -0.202  1.00  0.00     0.156 HD
ENDBRANCH   1   9
BRANCH   8  12
HETATM   12  C7  LIG X 999      -2.132   0.715   0.559  1.00  0.00     0.275 C 
HETATM   13  O2  LIG X 999      -3.047  -0.035   0.128  1.00  0.00    -0.301 OA
ENDBRANCH   8  12
TORSDOF 2
