REMARK  3 active torsions:
REMARK  status: ('A' for Active; 'I' for Inactive)
REMARK    1  A    between atoms: N1_1  and  N2_2 
REMARK    2  A    between atoms: N2_2  and  C1_3 
REMARK    3  A    between atoms: C1_3  and  C2_4 
ROOT
HETATM    1  N2  LIG X 999      -1.432   0.827  -0.427  1.00  0.00    -0.012 N 
HETATM    2  H3  LIG X 999      -0.813   1.334  -1.105  1.00  0.00     0.299 HD
HETATM    3  H4  LIG X 999      -2.264   1.426  -0.207  1.00  0.00     0.299 HD
ENDROOT
BRANCH   1   4
HETATM    4  N1  LIG X 999      -1.889  -0.379  -0.999  1.00  0.00    -0.164 NA
HETATM    5  H1  LIG X 999      -2.581  -0.138  -1.748  1.00  0.00     0.149 HD
HETATM    6  H2  LIG X 999      -1.087  -0.841  -1.488  1.00  0.00     0.149 HD
ENDBRANCH   1   4
BRANCH   1   7
HETATM    7  C1  LIG X 999      -0.723   0.541   0.827  1.00  0.00     0.293 C 
BRANCH   7   8
HETATM    8  C2  LIG X 999       0.607  -0.110   0.574  1.00  0.00    -0.007 A 
HETATM    9  C3  LIG X 999       1.759   0.514   0.146  1.00  0.00     0.035 A 
HETATM   10  C4  LIG X 999       2.692  -0.493   0.006  1.00  0.00     0.142 A 
HETATM   11  O1  LIG X 999       2.150  -1.650   0.317  1.00  0.00    -0.334 OA
HETATM   12  C5  LIG X 999       0.896  -1.456   0.658  1.00  0.00     0.150 A 
ENDBRANCH   7   8
ENDBRANCH   1   7
TORSDOF 3
