REMARK  1 active torsions:
REMARK  status: ('A' for Active; 'I' for Inactive)
REMARK    1  A    between atoms: N1_1  and  C1_2 
ROOT
HETATM    1  C1  LIG X 999       0.798  -0.129  -0.294  1.00  0.00     0.030 A 
HETATM    2  C2  LIG X 999       0.751  -1.239  -1.150  1.00  0.00     0.069 A 
HETATM    3  C3  LIG X 999      -0.479  -1.808  -1.498  1.00  0.00     0.111 A 
HETATM    4  O1  LIG X 999      -0.521  -2.907  -2.346  1.00  0.00    -0.192 OA
HETATM    5  C4  LIG X 999      -1.667  -1.270  -0.992  1.00  0.00     0.064 A 
HETATM    6  C5  LIG X 999      -1.626  -0.163  -0.137  1.00  0.00     0.038 A 
HETATM    7 CL1  LIG X 999      -3.116   0.511   0.497  1.00  0.00    -0.084 Cl
HETATM    8  C6  LIG X 999      -0.396   0.407   0.211  1.00  0.00     0.052 A 
ENDROOT
BRANCH   1   9
HETATM    9  N1  LIG X 999       2.055   0.453   0.062  1.00  0.00    -0.399 N 
HETATM   10  H1  LIG X 999       2.101   1.279   0.699  1.00  0.00     0.156 HD
HETATM   11  H2  LIG X 999       2.949   0.061  -0.309  1.00  0.00     0.156 HD
ENDBRANCH   1   9
TORSDOF 1
