REMARK  5 active torsions:
REMARK  status: ('A' for Active; 'I' for Inactive)
REMARK    1  A    between atoms: C4_5  and  C5_6 
REMARK    2  A    between atoms: C5_6  and  O1_7 
REMARK    3  A    between atoms: C5_6  and  C6_8 
REMARK    4  A    between atoms: C12_15  and  C13_16 
REMARK    5  A    between atoms: C13_16  and  N2_17 
ROOT
HETATM    1  C1  LIG X 999       4.593  -0.073   0.317  1.00  0.00     0.049 C 
HETATM    2  C2  LIG X 999       3.164  -0.400   0.635  1.00  0.00    -0.044 A 
HETATM    3  C3  LIG X 999       2.681  -1.701   0.481  1.00  0.00     0.123 A 
HETATM    4  N1  LIG X 999       1.396  -1.993   0.804  1.00  0.00    -0.261 NA
HETATM    5  C4  LIG X 999       0.527  -1.065   1.293  1.00  0.00     0.075 A 
HETATM    6  C12 LIG X 999       0.981   0.269   1.490  1.00  0.00    -0.005 A 
HETATM    7  C14 LIG X 999       2.309   0.578   1.154  1.00  0.00     0.019 A 
ENDROOT
BRANCH   5   8
HETATM    8  C5  LIG X 999      -0.880  -1.538   1.611  1.00  0.00     0.203 C 
BRANCH   8   9
HETATM    9  O1  LIG X 999      -1.158  -1.364   2.977  1.00  0.00    -0.385 OA
HETATM   10  H6  LIG X 999      -0.594  -2.015   3.471  1.00  0.00     0.211 HD
ENDBRANCH   8   9
BRANCH   8  11
HETATM   11  C6  LIG X 999      -1.912  -0.861   0.729  1.00  0.00    -0.024 A 
HETATM   12  C7  LIG X 999      -2.992  -0.133   1.267  1.00  0.00     0.012 A 
HETATM   13  C8  LIG X 999      -3.925   0.478   0.424  1.00  0.00     0.024 A 
HETATM   14  C9  LIG X 999      -3.802   0.360  -0.963  1.00  0.00     0.034 A 
HETATM   15 CL1  LIG X 999      -4.973   1.130  -2.018  1.00  0.00    -0.084 Cl
HETATM   16  C10 LIG X 999      -2.747  -0.376  -1.508  1.00  0.00     0.024 A 
HETATM   17  C11 LIG X 999      -1.811  -0.988  -0.669  1.00  0.00     0.012 A 
ENDBRANCH   8  11
ENDBRANCH   5   8
BRANCH   6  18
HETATM   18  C13 LIG X 999       0.102   1.391   2.003  1.00  0.00     0.270 C 
BRANCH  18  19
HETATM   19  N2  LIG X 999      -0.342   2.250   0.905  1.00  0.00    -0.075 N 
HETATM   20  H13 LIG X 999       0.479   2.733   0.472  1.00  0.00     0.274 HD
HETATM   21  H14 LIG X 999      -0.838   1.688   0.177  1.00  0.00     0.274 HD
HETATM   22  H15 LIG X 999      -0.998   2.973   1.279  1.00  0.00     0.274 HD
ENDBRANCH  18  19
ENDBRANCH   6  18
TORSDOF 5
