REMARK  3 active torsions:
REMARK  status: ('A' for Active; 'I' for Inactive)
REMARK    1  A    between atoms: C2_2  and  N1_3 
REMARK    2  A    between atoms: C3_4  and  C4_5 
REMARK    3  A    between atoms: C7_9  and  O2_10 
ROOT
HETATM    1  N1  LIG X 999      -1.246  -0.806   0.063  1.00  0.00    -0.034 N 
HETATM    2  C3  LIG X 999      -0.532   0.304   0.754  1.00  0.00     0.258 C 
HETATM    3  C5  LIG X 999      -0.738   1.514  -0.188  1.00  0.00     0.028 C 
HETATM    4  C6  LIG X 999       0.200   1.333  -1.392  1.00  0.00     0.041 C 
HETATM    5  C7  LIG X 999      -0.463   0.170  -2.150  1.00  0.00     0.149 C 
HETATM    6  C8  LIG X 999      -1.663  -0.193  -1.227  1.00  0.00     0.223 C 
HETATM    7  C9  LIG X 999      -2.086   1.194  -0.797  1.00  0.00     0.043 C 
HETATM    8  H4  LIG X 999      -2.120  -1.066   0.583  1.00  0.00     0.287 HD
ENDROOT
BRANCH   1   9
HETATM    9  C2  LIG X 999      -0.460  -2.016  -0.071  1.00  0.00     0.191 C 
HETATM   10  C1  LIG X 999      -0.998  -3.141  -0.558  1.00  0.00     0.037 C 
ENDBRANCH   1   9
BRANCH   2  11
HETATM   11  C4  LIG X 999      -1.089   0.584   2.132  1.00  0.00     0.265 C 
HETATM   12  O1  LIG X 999      -0.592   1.457   2.826  1.00  0.00    -0.305 OA
ENDBRANCH   2  11
BRANCH   5  13
HETATM   13  O2  LIG X 999       0.421  -0.897  -2.361  1.00  0.00    -0.393 OA
HETATM   14  H11 LIG X 999       1.068  -0.594  -3.050  1.00  0.00     0.210 HD
ENDBRANCH   5  13
TORSDOF 3
