REMARK  5 active torsions:
REMARK  status: ('A' for Active; 'I' for Inactive)
REMARK    1  A    between atoms: C2_2  and  C4_4 
REMARK    2  A    between atoms: C4_4  and  C5_6 
REMARK    3  A    between atoms: C5_6  and  C6_7 
REMARK    4  A    between atoms: C6_7  and  C7_8 
REMARK    5  A    between atoms: C8_10  and  C9_11 
ROOT
HETATM    1  C7  LIG X 999      -0.067   0.586   1.643  1.00  0.00     0.171 A 
HETATM    2  N1  LIG X 999       0.648  -0.445   1.142  1.00  0.00    -0.206 NA
HETATM    3  C8  LIG X 999       1.910  -0.062   1.428  1.00  0.00     0.167 A 
HETATM    4  N2  LIG X 999       1.940   1.126   2.059  1.00  0.00    -0.240 N 
HETATM    5  O2  LIG X 999       0.706   1.502   2.175  1.00  0.00    -0.221 OA
HETATM    6  H14 LIG X 999       2.771   1.663   2.393  1.00  0.00     0.196 HD
ENDROOT
BRANCH   1   7
HETATM    7  C6  LIG X 999      -1.558   0.688   1.559  1.00  0.00     0.096 C 
BRANCH   7   8
HETATM    8  C5  LIG X 999      -1.993   1.520   0.348  1.00  0.00     0.086 C 
BRANCH   8   9
HETATM    9  C4  LIG X 999      -1.619   0.854  -0.952  1.00  0.00     0.130 C 
HETATM   10  O1  LIG X 999      -0.628   1.238  -1.558  1.00  0.00    -0.298 OA
BRANCH   9  11
HETATM   11  C2  LIG X 999      -2.434  -0.299  -1.493  1.00  0.00     0.047 C 
HETATM   12  C1  LIG X 999      -1.577  -1.566  -1.589  1.00  0.00     0.017 C 
HETATM   13  C3  LIG X 999      -3.031   0.062  -2.857  1.00  0.00     0.017 C 
ENDBRANCH   9  11
ENDBRANCH   8   9
ENDBRANCH   7   8
ENDBRANCH   1   7
BRANCH   3  14
HETATM   14  C9  LIG X 999       3.097  -0.853   1.074  1.00  0.00     0.054 A 
HETATM   15  C10 LIG X 999       4.422  -0.518   1.341  1.00  0.00     0.025 A 
HETATM   16  C11 LIG X 999       5.336  -1.472   0.878  1.00  0.00     0.033 A 
HETATM   17  C12 LIG X 999       4.729  -2.549   0.250  1.00  0.00     0.075 A 
HETATM   18 CL1  LIG X 999       5.556  -3.924  -0.451  1.00  0.00    -0.076 Cl
HETATM   19  S1  LIG X 999       3.063  -2.329   0.264  1.00  0.00    -0.074 SA
ENDBRANCH   3  14
TORSDOF 5
