REMARK  0 active torsions:
REMARK  status: ('A' for Active; 'I' for Inactive)
ROOT
HETATM    1  N1  LIG X 999      -3.465  -0.817   0.260  1.00  0.00    -0.191 NA
HETATM    2  C1  LIG X 999      -2.327  -0.628   0.165  1.00  0.00     0.107 C 
HETATM    3  C2  LIG X 999      -0.915  -0.394   0.048  1.00  0.00     0.086 A 
HETATM    4  C3  LIG X 999      -0.294   0.845   0.131  1.00  0.00     0.032 A 
HETATM    5  C4  LIG X 999       1.095   0.769  -0.021  1.00  0.00     0.033 A 
HETATM    6  C5  LIG X 999       1.550  -0.526  -0.223  1.00  0.00     0.075 A 
HETATM    7 CL1  LIG X 999       3.221  -0.997  -0.451  1.00  0.00    -0.076 Cl
HETATM    8  S1  LIG X 999       0.243  -1.584  -0.214  1.00  0.00    -0.067 SA
ENDROOT
TORSDOF 0
