REMARK  6 active torsions:
REMARK  status: ('A' for Active; 'I' for Inactive)
REMARK    1  A    between atoms: C3_5  and  C4_6 
REMARK    2  A    between atoms: C8_11  and  N3_12 
REMARK    3  A    between atoms: C9_15  and  N4_16 
REMARK    4  A    between atoms: N4_16  and  N5_17 
REMARK    5  A    between atoms: N4_16  and  C10_18 
REMARK    6  A    between atoms: C10_18  and  C11_19 
ROOT
HETATM    1  C4  LIG X 999       1.199  -0.864  -0.293  1.00  0.00     0.052 A 
HETATM    2  C5  LIG X 999       2.285  -1.645   0.137  1.00  0.00     0.060 A 
HETATM    3  C6  LIG X 999       2.307  -3.020  -0.082  1.00  0.00     0.119 A 
HETATM    4  F1  LIG X 999       3.362  -3.756   0.346  1.00  0.00    -0.206 F 
HETATM    5  C7  LIG X 999       1.252  -3.639  -0.744  1.00  0.00     0.080 A 
HETATM    6  C8  LIG X 999       0.156  -2.892  -1.208  1.00  0.00     0.134 A 
HETATM    7  C9  LIG X 999       0.117  -1.492  -0.969  1.00  0.00     0.093 A 
ENDROOT
BRANCH   7   8
HETATM    8  N4  LIG X 999      -1.030  -0.726  -1.375  1.00  0.00    -0.307 N 
BRANCH   8   9
HETATM    9  N5  LIG X 999      -0.943   0.067  -2.534  1.00  0.00    -0.247 NA
HETATM   10  H7  LIG X 999      -1.319   1.015  -2.302  1.00  0.00     0.143 HD
HETATM   11  H8  LIG X 999      -1.582  -0.343  -3.252  1.00  0.00     0.143 HD
ENDBRANCH   8   9
BRANCH   8  12
HETATM   12  C10 LIG X 999      -2.307  -0.864  -0.664  1.00  0.00     0.183 C 
BRANCH  12  13
HETATM   13  C11 LIG X 999      -2.244  -0.165   0.658  1.00  0.00    -0.015 A 
HETATM   14  C12 LIG X 999      -1.697  -0.659   1.823  1.00  0.00     0.035 A 
HETATM   15  C13 LIG X 999      -1.774   0.375   2.732  1.00  0.00     0.142 A 
HETATM   16  O3  LIG X 999      -2.319   1.429   2.164  1.00  0.00    -0.334 OA
HETATM   17  C14 LIG X 999      -2.608   1.140   0.916  1.00  0.00     0.150 A 
ENDBRANCH  12  13
ENDBRANCH   8  12
ENDBRANCH   7   8
BRANCH   1  18
HETATM   18  C3  LIG X 999       1.216   0.591   0.008  1.00  0.00     0.203 A 
HETATM   19  N2  LIG X 999       2.236   1.222   0.632  1.00  0.00    -0.146 NA
HETATM   20  N1  LIG X 999       1.868   2.488   0.730  1.00  0.00    -0.258 N 
HETATM   21  C2  LIG X 999       0.654   2.597   0.168  1.00  0.00     0.138 A 
HETATM   22  H4  LIG X 999       2.437   3.246   1.168  1.00  0.00     0.191 HD
HETATM   23  C1  LIG X 999      -0.144   3.854   0.098  1.00  0.00     0.099 C 
HETATM   24  O4  LIG X 999       0.247   1.434  -0.274  1.00  0.00    -0.276 OA
ENDBRANCH   1  18
BRANCH   6  25
HETATM   25  N3  LIG X 999      -0.892  -3.566  -1.930  1.00  0.00    -0.113 N 
HETATM   26  O1  LIG X 999      -1.092  -4.785  -1.755  1.00  0.00    -0.532 OA
HETATM   27  O2  LIG X 999      -1.568  -2.930  -2.946  1.00  0.00    -0.532 OA
ENDBRANCH   6  25
TORSDOF 6
