REMARK  6 active torsions:
REMARK  status: ('A' for Active; 'I' for Inactive)
REMARK    1  A    between atoms: O1_2  and  C1_3 
REMARK    2  A    between atoms: C3_5  and  N1_6 
REMARK    3  A    between atoms: C5_10  and  N2_11 
REMARK    4  A    between atoms: N2_11  and  C6_13 
REMARK    5  A    between atoms: C7_14  and  C8_15 
REMARK    6  A    between atoms: C7_14  and  C9_17 
ROOT
HETATM    1  C1  LIG X 999       0.293   1.101   3.639  1.00  0.00     0.070 A 
HETATM    2  C2  LIG X 999      -0.619   2.162   3.570  1.00  0.00     0.065 A 
HETATM    3  C3  LIG X 999      -1.294   2.435   2.373  1.00  0.00     0.030 A 
HETATM    4  C4  LIG X 999      -1.046   1.645   1.242  1.00  0.00     0.058 A 
HETATM    5  C5  LIG X 999      -0.122   0.589   1.294  1.00  0.00     0.036 A 
HETATM    6  C12 LIG X 999       0.537   0.316   2.508  1.00  0.00     0.066 A 
ENDROOT
BRANCH   5   7
HETATM    7  N2  LIG X 999       0.100  -0.215   0.122  1.00  0.00    -0.365 N 
HETATM    8  H6  LIG X 999      -0.557  -0.093  -0.677  1.00  0.00     0.165 HD
BRANCH   7   9
HETATM    9  C6  LIG X 999       1.295  -0.985  -0.070  1.00  0.00     0.099 C 
HETATM   10  C7  LIG X 999       1.363  -2.098  -0.837  1.00  0.00    -0.002 C 
BRANCH  10  11
HETATM   11  C8  LIG X 999       2.680  -2.755  -1.031  1.00  0.00     0.267 C 
HETATM   12  O2  LIG X 999       3.727  -2.314  -0.486  1.00  0.00    -0.302 OA
ENDBRANCH  10  11
BRANCH  10  13
HETATM   13  C9  LIG X 999       0.165  -2.747  -1.529  1.00  0.00     0.015 C 
HETATM   14  C10 LIG X 999      -1.052  -2.953  -0.612  1.00  0.00     0.015 C 
HETATM   15  C11 LIG X 999      -0.201  -2.035  -2.837  1.00  0.00     0.015 C 
ENDBRANCH  10  13
ENDBRANCH   7   9
ENDBRANCH   5   7
BRANCH   3  16
HETATM   16  N1  LIG X 999      -2.231   3.513   2.307  1.00  0.00    -0.399 N 
HETATM   17  H3  LIG X 999      -2.422   4.108   3.144  1.00  0.00     0.156 HD
HETATM   18  H4  LIG X 999      -2.740   3.726   1.420  1.00  0.00     0.156 HD
ENDBRANCH   3  16
BRANCH   1  19
HETATM   19  O1  LIG X 999       0.960   0.816   4.829  1.00  0.00    -0.361 OA
HETATM   20  H1  LIG X 999       0.805   1.363   5.668  1.00  0.00     0.217 HD
ENDBRANCH   1  19
TORSDOF 6
