REMARK  5 active torsions:
REMARK  status: ('A' for Active; 'I' for Inactive)
REMARK    1  A    between atoms: C4_4  and  C5_5 
REMARK    2  A    between atoms: C5_5  and  C7_8 
REMARK    3  A    between atoms: N2_13  and  N3_14 
REMARK    4  A    between atoms: N3_14  and  C12_15 
REMARK    5  A    between atoms: C12_15  and  C13_16 
ROOT
HETATM    1  C5  LIG X 999       0.827  -1.006   2.076  1.00  0.00     0.196 C 
HETATM    2  C6  LIG X 999       1.391  -1.818   3.167  1.00  0.00     0.076 C 
HETATM    3  N1  LIG X 999       1.830  -2.456   4.026  1.00  0.00    -0.196 NA
ENDROOT
BRANCH   1   4
HETATM    4  C4  LIG X 999       1.917  -0.260   1.355  1.00  0.00     0.062 A 
HETATM    5  C3  LIG X 999       1.777   1.104   1.070  1.00  0.00     0.055 A 
HETATM    6  C2  LIG X 999       2.788   1.746   0.346  1.00  0.00     0.034 A 
HETATM    7  C1  LIG X 999       2.655   3.187  -0.029  1.00  0.00     0.070 C 
HETATM    8  N5  LIG X 999       3.864   1.035  -0.079  1.00  0.00    -0.239 NA
HETATM    9  C17 LIG X 999       3.992  -0.287   0.209  1.00  0.00     0.122 A 
HETATM   10  N4  LIG X 999       3.015  -0.926   0.904  1.00  0.00    -0.237 NA
HETATM   11  C18 LIG X 999       5.161  -1.055  -0.310  1.00  0.00     0.093 C 
ENDBRANCH   1   4
BRANCH   1  12
HETATM   12  C7  LIG X 999       0.063  -1.859   1.092  1.00  0.00     0.057 A 
HETATM   13  C8  LIG X 999       0.412  -3.139   0.682  1.00  0.00     0.031 A 
HETATM   14  C9  LIG X 999      -0.473  -3.495  -0.318  1.00  0.00     0.029 A 
HETATM   15  C10 LIG X 999      -1.322  -2.417  -0.495  1.00  0.00     0.030 A 
HETATM   16  C11 LIG X 999      -2.455  -2.368  -1.470  1.00  0.00     0.070 C 
HETATM   17  N2  LIG X 999      -0.972  -1.421   0.345  1.00  0.00    -0.267 N 
BRANCH  17  18
HETATM   18  N3  LIG X 999      -1.587  -0.160   0.448  1.00  0.00    -0.325 N 
HETATM   19  H11 LIG X 999      -1.782   0.227   1.398  1.00  0.00     0.181 HD
BRANCH  18  20
HETATM   20  C12 LIG X 999      -1.595   0.772  -0.675  1.00  0.00     0.180 C 
BRANCH  20  21
HETATM   21  C13 LIG X 999      -2.937   1.424  -0.785  1.00  0.00    -0.015 A 
HETATM   22  C14 LIG X 999      -3.434   2.417   0.033  1.00  0.00     0.035 A 
HETATM   23  C15 LIG X 999      -4.731   2.626  -0.391  1.00  0.00     0.142 A 
HETATM   24  O1  LIG X 999      -5.010   1.816  -1.390  1.00  0.00    -0.334 OA
HETATM   25  C16 LIG X 999      -3.956   1.077  -1.650  1.00  0.00     0.150 A 
ENDBRANCH  20  21
ENDBRANCH  18  20
ENDBRANCH  17  18
ENDBRANCH   1  12
TORSDOF 5
