REMARK  2 active torsions:
REMARK  status: ('A' for Active; 'I' for Inactive)
REMARK    1  A    between atoms: N1_1  and  C1_2 
REMARK    2  A    between atoms: C3_4  and  O1_5 
ROOT
HETATM    1  C1  LIG X 999       1.051   0.089   0.002  1.00  0.00     0.029 A 
HETATM    2  C2  LIG X 999       0.233  -1.047  -0.075  1.00  0.00     0.065 A 
HETATM    3  C3  LIG X 999      -1.163  -0.913  -0.083  1.00  0.00     0.069 A 
HETATM    4  C4  LIG X 999      -1.740   0.360  -0.014  1.00  0.00     0.060 A 
HETATM    5  C5  LIG X 999      -0.927   1.496   0.064  1.00  0.00     0.038 A 
HETATM    6 CL1  LIG X 999      -1.655   3.090   0.151  1.00  0.00    -0.084 Cl
HETATM    7  C6  LIG X 999       0.465   1.362   0.071  1.00  0.00     0.052 A 
ENDROOT
BRANCH   1   8
HETATM    8  N1  LIG X 999       2.475  -0.048   0.010  1.00  0.00    -0.399 N 
HETATM    9  H1  LIG X 999       2.921  -0.991  -0.041  1.00  0.00     0.156 HD
HETATM   10  H2  LIG X 999       3.093   0.792   0.067  1.00  0.00     0.156 HD
ENDBRANCH   1   8
BRANCH   3  11
HETATM   11  O1  LIG X 999      -1.984  -2.036  -0.160  1.00  0.00    -0.361 OA
HETATM   12  H4  LIG X 999      -1.598  -2.971  -0.212  1.00  0.00     0.217 HD
ENDBRANCH   3  11
TORSDOF 2
