REMARK  3 active torsions:
REMARK  status: ('A' for Active; 'I' for Inactive)
REMARK    1  A    between atoms: C2_2  and  N1_3 
REMARK    2  A    between atoms: C7_8  and  O1_9 
REMARK    3  A    between atoms: C8_10  and  C9_11 
ROOT
HETATM    1  N1  LIG X 999       0.592  -1.279  -1.438  1.00  0.00    -0.034 N 
HETATM    2  C3  LIG X 999      -0.244  -0.059  -1.573  1.00  0.00     0.223 C 
HETATM    3  C4  LIG X 999       0.139   0.727  -0.337  1.00  0.00     0.043 C 
HETATM    4  C5  LIG X 999      -0.277  -0.378   0.604  1.00  0.00     0.028 C 
HETATM    5  C6  LIG X 999      -1.762  -0.550   0.238  1.00  0.00     0.041 C 
HETATM    6  C7  LIG X 999      -1.744  -0.382  -1.293  1.00  0.00     0.149 C 
HETATM    7  C8  LIG X 999       0.506  -1.581   0.021  1.00  0.00     0.258 C 
HETATM    8  H4  LIG X 999       1.573  -1.028  -1.716  1.00  0.00     0.287 HD
ENDROOT
BRANCH   1   9
HETATM    9  C2  LIG X 999       0.168  -2.376  -2.288  1.00  0.00     0.191 C 
HETATM   10  C1  LIG X 999       0.278  -2.303  -3.619  1.00  0.00     0.037 C 
ENDBRANCH   1   9
BRANCH   7  11
HETATM   11  C9  LIG X 999       1.869  -1.711   0.665  1.00  0.00     0.265 C 
HETATM   12  O2  LIG X 999       1.959  -1.976   1.853  1.00  0.00    -0.305 OA
ENDBRANCH   7  11
BRANCH   6  13
HETATM   13  O1  LIG X 999      -2.605   0.640  -1.737  1.00  0.00    -0.393 OA
HETATM   14  H12 LIG X 999      -2.351   1.489  -1.293  1.00  0.00     0.210 HD
ENDBRANCH   6  13
TORSDOF 3
