REMARK  2 active torsions:
REMARK  status: ('A' for Active; 'I' for Inactive)
REMARK    1  A    between atoms: N1_1  and  C1_2 
REMARK    2  A    between atoms: C3_4  and  O1_5 
ROOT
HETATM    1  C1  LIG X 999       1.251  -0.551   1.050  1.00  0.00     0.029 A 
HETATM    2  C2  LIG X 999       1.764  -0.661  -0.252  1.00  0.00     0.065 A 
HETATM    3  C3  LIG X 999       0.900  -0.842  -1.338  1.00  0.00     0.069 A 
HETATM    4  C4  LIG X 999      -0.484  -0.911  -1.123  1.00  0.00     0.060 A 
HETATM    5  C5  LIG X 999      -1.000  -0.801   0.172  1.00  0.00     0.038 A 
HETATM    6 CL1  LIG X 999      -2.732  -0.889   0.437  1.00  0.00    -0.084 Cl
HETATM    7  C6  LIG X 999      -0.134  -0.621   1.257  1.00  0.00     0.052 A 
ENDROOT
BRANCH   1   8
HETATM    8  N1  LIG X 999       2.136  -0.367   2.158  1.00  0.00    -0.399 N 
HETATM    9  H1  LIG X 999       1.764  -0.283   3.131  1.00  0.00     0.156 HD
HETATM   10  H2  LIG X 999       3.169  -0.313   2.014  1.00  0.00     0.156 HD
ENDBRANCH   1   8
BRANCH   3  11
HETATM   11  O1  LIG X 999       1.425  -0.950  -2.623  1.00  0.00    -0.361 OA
HETATM   12  H4  LIG X 999       0.827  -1.081  -3.431  1.00  0.00     0.217 HD
ENDBRANCH   3  11
TORSDOF 2
