REMARK  4 active torsions:
REMARK  status: ('A' for Active; 'I' for Inactive)
REMARK    1  A    between atoms: S1_2  and  N1_5 
REMARK    2  A    between atoms: N1_5  and  N2_6 
REMARK    3  A    between atoms: N1_5  and  C2_7 
REMARK    4  A    between atoms: C2_7  and  C3_8 
ROOT
HETATM    1  N1  LIG X 999      -0.433   2.061  -1.193  1.00  0.00    -0.141 NA
ENDROOT
BRANCH   1   2
HETATM    2  S1  LIG X 999      -1.877   1.589  -0.332  1.00  0.00     0.220 S 
HETATM    3  C1  LIG X 999      -2.358  -0.073  -0.752  1.00  0.00     0.181 C 
HETATM    4  O1  LIG X 999      -1.651   1.681   1.152  1.00  0.00    -0.210 OA
HETATM    5  O2  LIG X 999      -2.998   2.516  -0.713  1.00  0.00    -0.210 OA
ENDBRANCH   1   2
BRANCH   1   6
HETATM    6  N2  LIG X 999      -0.203   3.426  -0.913  1.00  0.00    -0.255 NA
HETATM    7  H4  LIG X 999       0.178   3.536   0.057  1.00  0.00     0.138 HD
HETATM    8  H5  LIG X 999       0.508   3.781  -1.592  1.00  0.00     0.138 HD
ENDBRANCH   1   6
BRANCH   1   9
HETATM    9  C2  LIG X 999       0.732   1.251  -0.780  1.00  0.00     0.166 C 
BRANCH   9  10
HETATM   10  C3  LIG X 999       0.781  -0.032  -1.552  1.00  0.00    -0.019 A 
HETATM   11  C4  LIG X 999       0.620  -0.182  -2.914  1.00  0.00     0.035 A 
HETATM   12  C5  LIG X 999       0.819  -1.525  -3.161  1.00  0.00     0.142 A 
HETATM   13  O3  LIG X 999       1.096  -2.149  -2.038  1.00  0.00    -0.334 OA
HETATM   14  C6  LIG X 999       1.089  -1.280  -1.053  1.00  0.00     0.149 A 
ENDBRANCH   9  10
ENDBRANCH   1   9
TORSDOF 4
