REMARK  2 active torsions:
REMARK  status: ('A' for Active; 'I' for Inactive)
REMARK    1  A    between atoms: N3_3  and  C1_4 
REMARK    2  A    between atoms: C3_6  and  N4_7 
ROOT
HETATM    1  N1  LIG X 999       1.729   1.715  -1.756  1.00  0.00     0.068 N 
HETATM    2  N2  LIG X 999       1.200   1.190  -0.778  1.00  0.00    -0.162 NA
HETATM    3  N3  LIG X 999       0.671   0.666   0.204  1.00  0.00    -0.073 NA
ENDROOT
BRANCH   3   4
HETATM    4  C1  LIG X 999      -0.209  -0.461   0.090  1.00  0.00     0.097 A 
HETATM    5  C2  LIG X 999      -0.521  -1.036  -1.157  1.00  0.00     0.063 A 
HETATM    6  C3  LIG X 999      -1.386  -2.138  -1.232  1.00  0.00     0.029 A 
HETATM    7  C4  LIG X 999      -1.940  -2.666  -0.057  1.00  0.00     0.052 A 
HETATM    8  C5  LIG X 999      -1.633  -2.097   1.183  1.00  0.00     0.038 A 
HETATM    9 CL1  LIG X 999      -2.330  -2.763   2.649  1.00  0.00    -0.084 Cl
HETATM   10  C6  LIG X 999      -0.770  -0.999   1.255  1.00  0.00     0.058 A 
BRANCH   6  11
HETATM   11  N4  LIG X 999      -1.700  -2.720  -2.499  1.00  0.00    -0.399 N 
HETATM   12  H2  LIG X 999      -1.293  -2.336  -3.381  1.00  0.00     0.156 HD
HETATM   13  H3  LIG X 999      -2.343  -3.541  -2.566  1.00  0.00     0.156 HD
ENDBRANCH   6  11
ENDBRANCH   3   4
TORSDOF 2
