REMARK  4 active torsions:
REMARK  status: ('A' for Active; 'I' for Inactive)
REMARK    1  A    between atoms: N1_1  and  C1_2 
REMARK    2  A    between atoms: C2_4  and  C3_5 
REMARK    3  A    between atoms: C7_10  and  C8_11 
REMARK    4  A    between atoms: C9_13  and  C10_14 
ROOT
HETATM    1  C1  LIG X 999       1.154   0.060   0.740  1.00  0.00     0.139 A 
HETATM    2  N2  LIG X 999       2.113  -0.868   0.998  1.00  0.00    -0.215 NA
HETATM    3  C2  LIG X 999       1.884  -2.200   0.843  1.00  0.00     0.132 A 
HETATM    4  N3  LIG X 999       0.671  -2.623   0.407  1.00  0.00    -0.244 NA
HETATM    5  C6  LIG X 999      -0.326  -1.742   0.138  1.00  0.00     0.138 A 
HETATM    6  C7  LIG X 999      -0.126  -0.366   0.316  1.00  0.00     0.076 A 
ENDROOT
BRANCH   6   7
HETATM    7  C8  LIG X 999      -1.262   0.559   0.097  1.00  0.00     0.189 A 
HETATM    8  N4  LIG X 999      -2.285   0.293  -0.742  1.00  0.00    -0.204 NA
HETATM    9  C9  LIG X 999      -3.081   1.363  -0.557  1.00  0.00     0.190 A 
HETATM   10  N5  LIG X 999      -2.586   2.225   0.349  1.00  0.00    -0.127 NA
HETATM   11  N6  LIG X 999      -1.442   1.713   0.767  1.00  0.00    -0.127 NA
BRANCH   9  12
HETATM   12  C10 LIG X 999      -4.353   1.561  -1.262  1.00  0.00     0.056 A 
HETATM   13  C11 LIG X 999      -5.212   2.644  -1.105  1.00  0.00     0.025 A 
HETATM   14  C12 LIG X 999      -6.354   2.563  -1.910  1.00  0.00     0.033 A 
HETATM   15  C13 LIG X 999      -6.387   1.418  -2.693  1.00  0.00     0.075 A 
HETATM   16 CL1  LIG X 999      -7.659   0.986  -3.816  1.00  0.00    -0.076 Cl
HETATM   17  S1  LIG X 999      -5.009   0.504  -2.396  1.00  0.00    -0.074 SA
ENDBRANCH   9  12
ENDBRANCH   6   7
BRANCH   1  18
HETATM   18  N1  LIG X 999       1.500   1.444   0.853  1.00  0.00    -0.383 N 
HETATM   19  H1  LIG X 999       0.944   2.196   0.393  1.00  0.00     0.157 HD
HETATM   20  H2  LIG X 999       2.418   1.713   1.272  1.00  0.00     0.157 HD
ENDBRANCH   1  18
BRANCH   3  21
HETATM   21  C3  LIG X 999       2.951  -3.222   1.133  1.00  0.00     0.057 A 
HETATM   22  C4  LIG X 999       3.843  -2.920   2.329  1.00  0.00     0.013 A 
HETATM   23  C5  LIG X 999       4.390  -2.774   0.916  1.00  0.00     0.013 A 
ENDBRANCH   3  21
TORSDOF 4
