REMARK  0 active torsions:
REMARK  status: ('A' for Active; 'I' for Inactive)
ROOT
HETATM    1  N1  LIG X 999      -0.446   2.582  -0.913  1.00  0.00    -0.191 NA
HETATM    2  C1  LIG X 999      -0.057   1.593  -0.456  1.00  0.00     0.107 C 
HETATM    3  C2  LIG X 999       0.427   0.366   0.112  1.00  0.00     0.086 A 
HETATM    4  C3  LIG X 999      -0.046  -0.904  -0.191  1.00  0.00     0.032 A 
HETATM    5  C4  LIG X 999       0.615  -1.914   0.517  1.00  0.00     0.033 A 
HETATM    6  C5  LIG X 999       1.599  -1.429   1.367  1.00  0.00     0.075 A 
HETATM    7 CL1  LIG X 999       2.623  -2.400   2.403  1.00  0.00    -0.076 Cl
HETATM    8  S1  LIG X 999       1.658   0.248   1.250  1.00  0.00    -0.067 SA
ENDROOT
TORSDOF 0
