REMARK  4 active torsions:
REMARK  status: ('A' for Active; 'I' for Inactive)
REMARK    1  A    between atoms: C2_2  and  N1_3 
REMARK    2  A    between atoms: C7_8  and  O1_9 
REMARK    3  A    between atoms: C8_10  and  C9_11 
REMARK    4  A    between atoms: C9_11  and  N2_12 
ROOT
HETATM    1  N2  LIG X 999       0.302   0.372  -2.105  1.00  0.00    -0.113 NA
HETATM    2  N3  LIG X 999       1.096   0.411  -3.046  1.00  0.00    -0.168 NA
HETATM    3  N4  LIG X 999       1.890   0.449  -3.984  1.00  0.00     0.068 N 
ENDROOT
BRANCH   1   4
HETATM    4  C9  LIG X 999      -0.159   1.595  -1.458  1.00  0.00     0.223 C 
BRANCH   4   5
HETATM    5  C8  LIG X 999      -0.056   1.573   0.094  1.00  0.00     0.220 C 
HETATM    6  N1  LIG X 999      -0.831   0.547   0.855  1.00  0.00    -0.039 N 
HETATM    7  C3  LIG X 999       0.186  -0.008   1.788  1.00  0.00     0.222 C 
HETATM    8  H4  LIG X 999      -1.534   1.061   1.443  1.00  0.00     0.286 HD
HETATM    9  C4  LIG X 999       0.997   1.221   2.158  1.00  0.00     0.043 C 
HETATM   10  C7  LIG X 999       1.282  -0.845   1.063  1.00  0.00     0.149 C 
HETATM   11  C5  LIG X 999       1.365   1.526   0.720  1.00  0.00     0.023 C 
HETATM   12  C6  LIG X 999       2.110   0.234   0.352  1.00  0.00     0.040 C 
BRANCH   6  13
HETATM   13  C2  LIG X 999      -1.601  -0.451   0.132  1.00  0.00     0.191 C 
HETATM   14  C1  LIG X 999      -2.383  -1.323   0.780  1.00  0.00     0.037 C 
ENDBRANCH   6  13
BRANCH  10  15
HETATM   15  O1  LIG X 999       0.773  -1.779   0.149  1.00  0.00    -0.393 OA
HETATM   16  H12 LIG X 999       0.404  -2.524   0.691  1.00  0.00     0.210 HD
ENDBRANCH  10  15
ENDBRANCH   4   5
ENDBRANCH   1   4
TORSDOF 4
