REMARK  3 active torsions:
REMARK  status: ('A' for Active; 'I' for Inactive)
REMARK    1  A    between atoms: N1_2  and  C1_3 
REMARK    2  A    between atoms: C4_6  and  C5_7 
REMARK    3  A    between atoms: C5_7  and  C6_9 
ROOT
HETATM    1  C1  LIG X 999       2.796  -0.448   0.409  1.00  0.00     0.121 A 
HETATM    2  C2  LIG X 999       2.706   0.514  -0.602  1.00  0.00     0.051 A 
HETATM    3  C3  LIG X 999       1.488   0.749  -1.232  1.00  0.00     0.021 A 
HETATM    4  C4  LIG X 999       0.351   0.034  -0.848  1.00  0.00     0.031 A 
HETATM    5  C10 LIG X 999       0.477  -0.940   0.155  1.00  0.00     0.107 A 
HETATM    6  N2  LIG X 999       1.678  -1.169   0.776  1.00  0.00    -0.346 N 
HETATM    7  C11 LIG X 999       1.739  -2.197   1.826  1.00  0.00     0.157 C 
ENDROOT
BRANCH   4   8
HETATM    8  C5  LIG X 999      -0.941   0.272  -1.531  1.00  0.00     0.200 C 
HETATM    9  O1  LIG X 999      -0.942   0.528  -2.765  1.00  0.00    -0.286 OA
BRANCH   8  10
HETATM   10  C6  LIG X 999      -2.232   0.231  -0.816  1.00  0.00     0.057 A 
HETATM   11  S1  LIG X 999      -3.736   0.085  -1.562  1.00  0.00    -0.074 SA
HETATM   12  C7  LIG X 999      -4.638   0.180  -0.149  1.00  0.00     0.075 A 
HETATM   13 CL1  LIG X 999      -6.386   0.106  -0.063  1.00  0.00    -0.076 Cl
HETATM   14  C8  LIG X 999      -3.781   0.343   0.928  1.00  0.00     0.033 A 
HETATM   15  C9  LIG X 999      -2.432   0.379   0.556  1.00  0.00     0.025 A 
ENDBRANCH   8  10
ENDBRANCH   4   8
BRANCH   1  16
HETATM   16  N1  LIG X 999       3.952  -0.634   0.975  1.00  0.00    -0.284 NA
HETATM   17  H1  LIG X 999       4.138  -1.322   1.736  1.00  0.00     0.188 HD
ENDBRANCH   1  16
TORSDOF 3
