REMARK  3 active torsions:
REMARK  status: ('A' for Active; 'I' for Inactive)
REMARK    1  A    between atoms: C4_4  and  N1_5 
REMARK    2  A    between atoms: N1_5  and  C5_6 
REMARK    3  A    between atoms: C5_6  and  C6_7 
ROOT
HETATM    1  N1  LIG X 999      -0.937   0.633   0.726  1.00  0.00     0.091 N 
HETATM    2  H8  LIG X 999      -1.256   0.981   1.662  1.00  0.00     0.316 HD
ENDROOT
BRANCH   1   3
HETATM    3  C4  LIG X 999       0.504   0.324   0.769  1.00  0.00     0.251 C 
HETATM    4  C3  LIG X 999       1.339   1.421   1.382  1.00  0.00     0.069 C 
HETATM    5  C2  LIG X 999       2.471   0.652   2.061  1.00  0.00     0.120 C 
HETATM    6  C1  LIG X 999       3.767   0.724   1.251  1.00  0.00     0.039 C 
HETATM    7  O1  LIG X 999       2.096  -0.702   2.212  1.00  0.00    -0.379 OA
HETATM    8  C11 LIG X 999       0.791  -0.848   1.700  1.00  0.00     0.151 C 
HETATM    9  C12 LIG X 999       0.663  -2.191   0.981  1.00  0.00     0.042 C 
ENDBRANCH   1   3
BRANCH   1  10
HETATM   10  C5  LIG X 999      -1.237   1.655  -0.284  1.00  0.00     0.275 C 
BRANCH  10  11
HETATM   11  C6  LIG X 999      -2.754   1.831  -0.404  1.00  0.00     0.023 A 
HETATM   12  C7  LIG X 999      -3.442   0.778  -1.181  1.00  0.00     0.017 A 
HETATM   13  C8  LIG X 999      -3.236   2.173  -1.843  1.00  0.00    -0.035 A 
HETATM   14  C9  LIG X 999      -4.678   2.449  -2.353  1.00  0.00     0.011 A 
HETATM   15  C10 LIG X 999      -4.005   3.494  -1.562  1.00  0.00     0.011 A 
ENDBRANCH  10  11
ENDBRANCH   1  10
TORSDOF 3
