REMARK  3 active torsions:
REMARK  status: ('A' for Active; 'I' for Inactive)
REMARK    1  A    between atoms: N1_1  and  N2_2 
REMARK    2  A    between atoms: N2_2  and  C1_3 
REMARK    3  A    between atoms: C1_3  and  C2_4 
ROOT
HETATM    1  N2  LIG X 999       0.936   0.210   2.073  1.00  0.00    -0.012 N 
HETATM    2  H3  LIG X 999       0.788   1.238   2.207  1.00  0.00     0.299 HD
HETATM    3  H4  LIG X 999       1.501   0.051   1.207  1.00  0.00     0.299 HD
ENDROOT
BRANCH   1   4
HETATM    4  N1  LIG X 999       1.670  -0.277   3.176  1.00  0.00    -0.164 NA
HETATM    5  H1  LIG X 999       1.118  -0.125   4.053  1.00  0.00     0.149 HD
HETATM    6  H2  LIG X 999       1.827  -1.306   3.059  1.00  0.00     0.149 HD
ENDBRANCH   1   4
BRANCH   1   7
HETATM    7  C1  LIG X 999      -0.359  -0.480   1.968  1.00  0.00     0.293 C 
BRANCH   7   8
HETATM    8  C2  LIG X 999      -1.136   0.041   0.796  1.00  0.00    -0.007 A 
HETATM    9  C3  LIG X 999      -1.985   1.127   0.790  1.00  0.00     0.035 A 
HETATM   10  C4  LIG X 999      -2.397   1.262  -0.520  1.00  0.00     0.142 A 
HETATM   11  O1  LIG X 999      -1.833   0.336  -1.264  1.00  0.00    -0.334 OA
HETATM   12  C5  LIG X 999      -1.063  -0.410  -0.505  1.00  0.00     0.150 A 
ENDBRANCH   7   8
ENDBRANCH   1   7
TORSDOF 3
