REMARK  6 active torsions:
REMARK  status: ('A' for Active; 'I' for Inactive)
REMARK    1  A    between atoms: C4_5  and  N2_6 
REMARK    2  A    between atoms: N2_6  and  N3_7 
REMARK    3  A    between atoms: N2_6  and  C5_8 
REMARK    4  A    between atoms: C5_8  and  C6_9 
REMARK    5  A    between atoms: C11_15  and  C12_16 
REMARK    6  A    between atoms: C12_16  and  C13_17 
REMARK       I    between atoms: C13_17  and  N4_18 
ROOT
HETATM    1  C1  LIG X 999       0.310   3.468  -0.089  1.00  0.00     0.050 C 
HETATM    2  C2  LIG X 999      -0.069   2.033   0.172  1.00  0.00    -0.040 A 
HETATM    3  C3  LIG X 999      -1.276   1.752   0.824  1.00  0.00     0.097 A 
HETATM    4  N1  LIG X 999      -1.658   0.469   1.062  1.00  0.00    -0.351 N 
HETATM    5  C4  LIG X 999      -0.897  -0.602   0.679  1.00  0.00     0.118 A 
HETATM    6  C10 LIG X 999       0.324  -0.356   0.021  1.00  0.00     0.058 A 
HETATM    7  C11 LIG X 999       0.740   0.955  -0.251  1.00  0.00    -0.038 A 
HETATM    8  H5  LIG X 999      -2.567   0.333   1.554  1.00  0.00     0.166 HD
ENDROOT
BRANCH   5   9
HETATM    9  N2  LIG X 999      -1.349  -1.961   0.948  1.00  0.00    -0.296 N 
BRANCH   9  10
HETATM   10  N3  LIG X 999      -2.532  -2.197   1.673  1.00  0.00    -0.246 NA
HETATM   11  H6  LIG X 999      -2.439  -1.738   2.607  1.00  0.00     0.143 HD
HETATM   12  H7  LIG X 999      -3.330  -1.771   1.147  1.00  0.00     0.143 HD
ENDBRANCH   9  10
BRANCH   9  13
HETATM   13  C5  LIG X 999      -0.610  -3.143   0.488  1.00  0.00     0.185 C 
BRANCH  13  14
HETATM   14  C6  LIG X 999      -0.691  -3.277  -1.004  1.00  0.00    -0.015 A 
HETATM   15  C7  LIG X 999      -1.821  -3.161  -1.787  1.00  0.00     0.035 A 
HETATM   16  C8  LIG X 999      -1.409  -3.439  -3.075  1.00  0.00     0.142 A 
HETATM   17  O1  LIG X 999      -0.124  -3.715  -3.081  1.00  0.00    -0.334 OA
HETATM   18  C9  LIG X 999       0.338  -3.632  -1.853  1.00  0.00     0.150 A 
ENDBRANCH  13  14
ENDBRANCH   9  13
ENDBRANCH   5   9
BRANCH   7  19
HETATM   19  C12 LIG X 999       2.067   1.162  -0.946  1.00  0.00     0.143 C 
BRANCH  19  20
HETATM   20  C13 LIG X 999       3.187   1.117   0.045  1.00  0.00     0.240 C 
HETATM   21  N4  LIG X 999       3.793  -0.130   0.377  1.00  0.00    -0.267 NA
HETATM   22  H16 LIG X 999       4.566  -0.180   1.078  1.00  0.00     0.190 HD
HETATM   23  O2  LIG X 999       3.571   2.174   0.616  1.00  0.00    -0.272 OA
ENDBRANCH  19  20
ENDBRANCH   7  19
TORSDOF 6
