REMARK  3 active torsions:
REMARK  status: ('A' for Active; 'I' for Inactive)
REMARK    1  A    between atoms: N1_1  and  N2_2 
REMARK    2  A    between atoms: N2_2  and  C1_3 
REMARK    3  A    between atoms: C1_3  and  C2_4 
ROOT
HETATM    1  C1  LIG X 999      -0.793  -0.598  -0.766  1.00  0.00     0.145 C 
ENDROOT
BRANCH   1   2
HETATM    2  N2  LIG X 999      -1.569   0.634  -0.598  1.00  0.00    -0.259 NA
HETATM    3  H3  LIG X 999      -2.404   0.554  -1.227  1.00  0.00     0.140 HD
BRANCH   2   4
HETATM    4  N1  LIG X 999      -2.044   0.688   0.726  1.00  0.00    -0.271 NA
HETATM    5  H1  LIG X 999      -2.812   1.399   0.760  1.00  0.00     0.137 HD
HETATM    6  H2  LIG X 999      -1.276   1.083   1.315  1.00  0.00     0.137 HD
ENDBRANCH   2   4
ENDBRANCH   1   2
BRANCH   1   7
HETATM    7  C2  LIG X 999       0.570  -0.444  -0.162  1.00  0.00    -0.020 A 
HETATM    8  C3  LIG X 999       1.622   0.278  -0.682  1.00  0.00     0.035 A 
HETATM    9  C4  LIG X 999       2.636   0.171   0.248  1.00  0.00     0.142 A 
HETATM   10  O1  LIG X 999       2.232  -0.556   1.267  1.00  0.00    -0.334 OA
HETATM   11  C5  LIG X 999       0.993  -0.937   1.055  1.00  0.00     0.149 A 
ENDBRANCH   1   7
TORSDOF 3
