REMARK  2 active torsions:
REMARK  status: ('A' for Active; 'I' for Inactive)
REMARK    1  A    between atoms: C1_2  and  C2_3 
REMARK    2  A    between atoms: C7_8  and  C8_9 
ROOT
HETATM    1  C2  LIG X 999      -0.364  -1.385   0.683  1.00  0.00     0.008 A 
HETATM    2  C3  LIG X 999      -1.620  -2.008   0.790  1.00  0.00     0.015 A 
HETATM    3  C4  LIG X 999      -2.731  -1.497   0.118  1.00  0.00     0.001 A 
HETATM    4  C5  LIG X 999      -2.604  -0.362  -0.678  1.00  0.00     0.001 A 
HETATM    5  C6  LIG X 999      -1.372   0.283  -0.786  1.00  0.00     0.008 A 
HETATM    6  C7  LIG X 999      -0.249  -0.190  -0.082  1.00  0.00    -0.041 A 
ENDROOT
BRANCH   6   7
HETATM    7  C8  LIG X 999       1.056   0.563  -0.212  1.00  0.00     0.019 A 
HETATM    8  C9  LIG X 999       1.561   1.198   1.079  1.00  0.00     0.010 A 
HETATM    9  C10 LIG X 999       0.976   2.074  -0.009  1.00  0.00     0.010 A 
ENDBRANCH   6   7
BRANCH   1  10
HETATM   10  C1  LIG X 999       0.779  -2.034   1.367  1.00  0.00     0.270 C 
HETATM   11  O1  LIG X 999       1.973  -1.751   1.088  1.00  0.00    -0.301 OA
ENDBRANCH   1  10
TORSDOF 2
