REMARK  3 active torsions:
REMARK  status: ('A' for Active; 'I' for Inactive)
REMARK    1  A    between atoms: N1_1  and  N2_2 
REMARK    2  A    between atoms: N2_2  and  C1_3 
REMARK    3  A    between atoms: C1_3  and  C2_4 
ROOT
HETATM    1  C1  LIG X 999       0.098   1.231   0.636  1.00  0.00     0.145 C 
ENDROOT
BRANCH   1   2
HETATM    2  N2  LIG X 999       0.645   1.525  -0.700  1.00  0.00    -0.259 NA
HETATM    3  H3  LIG X 999      -0.010   1.176  -1.438  1.00  0.00     0.140 HD
BRANCH   2   4
HETATM    4  N1  LIG X 999       1.894   0.894  -0.888  1.00  0.00    -0.271 NA
HETATM    5  H1  LIG X 999       1.794  -0.140  -0.765  1.00  0.00     0.137 HD
HETATM    6  H2  LIG X 999       2.567   1.259  -0.175  1.00  0.00     0.137 HD
ENDBRANCH   2   4
ENDBRANCH   1   2
BRANCH   1   7
HETATM    7  C2  LIG X 999      -0.418  -0.177   0.738  1.00  0.00    -0.020 A 
HETATM    8  C3  LIG X 999       0.200  -1.238   1.363  1.00  0.00     0.035 A 
HETATM    9  C4  LIG X 999      -0.633  -2.320   1.161  1.00  0.00     0.142 A 
HETATM   10  O1  LIG X 999      -1.681  -1.950   0.459  1.00  0.00    -0.334 OA
HETATM   11  C5  LIG X 999      -1.583  -0.669   0.186  1.00  0.00     0.149 A 
ENDBRANCH   1   7
TORSDOF 3
