REMARK  0 active torsions:
REMARK  status: ('A' for Active; 'I' for Inactive)
ROOT
HETATM    1  N1  LIG X 999      -3.018  -1.485  -1.209  1.00  0.00    -0.191 NA
HETATM    2  C1  LIG X 999      -2.030  -1.067  -0.773  1.00  0.00     0.107 C 
HETATM    3  C2  LIG X 999      -0.805  -0.549  -0.233  1.00  0.00     0.086 A 
HETATM    4  C3  LIG X 999      -0.236   0.675  -0.555  1.00  0.00     0.032 A 
HETATM    5  C4  LIG X 999       0.962   0.915   0.128  1.00  0.00     0.033 A 
HETATM    6  C5  LIG X 999       1.321  -0.122   0.978  1.00  0.00     0.075 A 
HETATM    7 CL1  LIG X 999       2.752  -0.166   1.986  1.00  0.00    -0.076 Cl
HETATM    8  S1  LIG X 999       0.164  -1.339   0.891  1.00  0.00    -0.067 SA
ENDROOT
TORSDOF 0
