REMARK  1 active torsions:
REMARK  status: ('A' for Active; 'I' for Inactive)
REMARK    1  A    between atoms: N1_1  and  C1_2 
ROOT
HETATM    1  C1  LIG X 999       0.903  -0.172  -0.024  1.00  0.00     0.030 A 
HETATM    2  C2  LIG X 999       0.060  -1.134   0.553  1.00  0.00     0.069 A 
HETATM    3  C3  LIG X 999      -1.321  -0.916   0.607  1.00  0.00     0.111 A 
HETATM    4  O1  LIG X 999      -2.152  -1.871   1.179  1.00  0.00    -0.192 OA
HETATM    5  C4  LIG X 999      -1.865   0.262   0.085  1.00  0.00     0.064 A 
HETATM    6  C5  LIG X 999      -1.029   1.224  -0.491  1.00  0.00     0.038 A 
HETATM    7 CL1  LIG X 999      -1.713   2.701  -1.145  1.00  0.00    -0.084 Cl
HETATM    8  C6  LIG X 999       0.353   1.008  -0.546  1.00  0.00     0.052 A 
ENDROOT
BRANCH   1   9
HETATM    9  N1  LIG X 999       2.315  -0.394  -0.080  1.00  0.00    -0.399 N 
HETATM   10  H1  LIG X 999       2.951   0.316  -0.507  1.00  0.00     0.156 HD
HETATM   11  H2  LIG X 999       2.735  -1.269   0.306  1.00  0.00     0.156 HD
ENDBRANCH   1   9
TORSDOF 1
