REMARK  3 active torsions:
REMARK  status: ('A' for Active; 'I' for Inactive)
REMARK    1  A    between atoms: C2_2  and  C3_3 
REMARK    2  A    between atoms: C3_3  and  C6_6 
REMARK       I    between atoms: C6_6  and  N1_8 
REMARK    3  A    between atoms: N1_8  and  C7_9 
ROOT
HETATM    1  C7  LIG X 999       0.023   1.174  -0.092  1.00  0.00     0.065 A 
HETATM    2  C8  LIG X 999      -1.353   1.389   0.114  1.00  0.00     0.071 A 
HETATM    3  C9  LIG X 999      -1.974   2.525  -0.418  1.00  0.00     0.111 A 
HETATM    4  O2  LIG X 999      -3.334   2.730  -0.215  1.00  0.00    -0.192 OA
HETATM    5  C10 LIG X 999      -1.229   3.455  -1.147  1.00  0.00     0.064 A 
HETATM    6  C11 LIG X 999       0.143   3.259  -1.335  1.00  0.00     0.039 A 
HETATM    7 CL1  LIG X 999       1.082   4.436  -2.236  1.00  0.00    -0.084 Cl
HETATM    8  C12 LIG X 999       0.767   2.126  -0.802  1.00  0.00     0.055 A 
ENDROOT
BRANCH   1   9
HETATM    9  N1  LIG X 999       0.704   0.038   0.458  1.00  0.00    -0.214 NA
HETATM   10  C6  LIG X 999       0.113  -1.224   0.797  1.00  0.00     0.251 C 
HETATM   11  O1  LIG X 999      -0.998  -1.555   0.296  1.00  0.00    -0.270 OA
BRANCH  10  12
HETATM   12  C3  LIG X 999       0.885  -2.203   1.666  1.00  0.00     0.035 C 
HETATM   13  C4  LIG X 999       2.019  -2.805   0.814  1.00  0.00     0.025 C 
HETATM   14  C5  LIG X 999      -0.027  -3.356   2.148  1.00  0.00     0.025 C 
BRANCH  12  15
HETATM   15  C2  LIG X 999       1.517  -1.472   2.888  1.00  0.00     0.014 C 
HETATM   16  C1  LIG X 999       0.502  -0.783   3.808  1.00  0.00     0.006 C 
ENDBRANCH  12  15
ENDBRANCH  10  12
ENDBRANCH   1   9
TORSDOF 3
