REMARK  3 active torsions:
REMARK  status: ('A' for Active; 'I' for Inactive)
REMARK    1  A    between atoms: C1_1  and  C2_3 
REMARK    2  A    between atoms: C5_6  and  C6_7 
REMARK    3  A    between atoms: C7_8  and  C8_9 
ROOT
HETATM    1  C6  LIG X 999      -0.270   0.587  -0.402  1.00  0.00     0.015 C 
HETATM    2  C7  LIG X 999       0.185   1.137  -1.538  1.00  0.00     0.051 C 
ENDROOT
BRANCH   1   3
HETATM    3  C5  LIG X 999       0.533  -0.327   0.448  1.00  0.00    -0.036 A 
HETATM    4  C4  LIG X 999       0.167  -0.486   1.794  1.00  0.00     0.012 A 
HETATM    5  C3  LIG X 999       0.885  -1.343   2.633  1.00  0.00     0.015 A 
HETATM    6  C2  LIG X 999       1.981  -2.067   2.137  1.00  0.00     0.002 A 
HETATM    7  C13 LIG X 999       2.341  -1.925   0.789  1.00  0.00     0.015 A 
HETATM    8  C12 LIG X 999       1.623  -1.068  -0.051  1.00  0.00     0.012 A 
BRANCH   6   9
HETATM    9  C1  LIG X 999       2.751  -2.976   3.006  1.00  0.00     0.269 C 
HETATM   10  O1  LIG X 999       2.451  -3.126   4.220  1.00  0.00    -0.301 OA
ENDBRANCH   6   9
ENDBRANCH   1   3
BRANCH   2  11
HETATM   11  C8  LIG X 999      -0.615   2.048  -2.387  1.00  0.00     0.127 A 
HETATM   12  N1  LIG X 999      -0.244   2.205  -3.687  1.00  0.00    -0.240 NA
HETATM   13  C9  LIG X 999      -0.925   3.032  -4.522  1.00  0.00     0.162 A 
HETATM   14  C10 LIG X 999      -2.023   3.744  -4.047  1.00  0.00     0.149 A 
HETATM   15  F1  LIG X 999      -2.715   4.576  -4.863  1.00  0.00    -0.203 F 
HETATM   16  C11 LIG X 999      -2.386   3.592  -2.711  1.00  0.00     0.133 A 
HETATM   17  N2  LIG X 999      -1.680   2.756  -1.902  1.00  0.00    -0.348 N 
HETATM   18  H8  LIG X 999      -1.961   2.699  -0.899  1.00  0.00     0.167 HD
ENDBRANCH   2  11
TORSDOF 3
