REMARK  4 active torsions:
REMARK  status: ('A' for Active; 'I' for Inactive)
REMARK    1  A    between atoms: N1_1  and  N2_2 
REMARK    2  A    between atoms: N2_2  and  C1_3 
REMARK       I    between atoms: N2_2  and  C6_9 
REMARK    3  A    between atoms: C1_3  and  C2_4 
REMARK    4  A    between atoms: C6_9  and  C7_11 
ROOT
HETATM    1  N2  LIG X 999       0.877  -1.306  -0.042  1.00  0.00    -0.279 N 
HETATM    2  C6  LIG X 999       0.187  -0.748   1.091  1.00  0.00     0.263 C 
HETATM    3  O2  LIG X 999       0.819  -0.568   2.168  1.00  0.00    -0.269 OA
ENDROOT
BRANCH   1   4
HETATM    4  N1  LIG X 999       2.037  -2.064   0.203  1.00  0.00    -0.244 NA
HETATM    5  H1  LIG X 999       2.865  -1.469  -0.029  1.00  0.00     0.143 HD
HETATM    6  H2  LIG X 999       2.036  -2.881  -0.449  1.00  0.00     0.143 HD
ENDBRANCH   1   4
BRANCH   1   7
HETATM    7  C1  LIG X 999       0.557  -0.913  -1.423  1.00  0.00     0.186 C 
BRANCH   7   8
HETATM    8  C2  LIG X 999       1.518   0.131  -1.902  1.00  0.00    -0.015 A 
HETATM    9  C3  LIG X 999       2.647  -0.082  -2.664  1.00  0.00     0.035 A 
HETATM   10  C4  LIG X 999       3.241   1.157  -2.795  1.00  0.00     0.142 A 
HETATM   11  O1  LIG X 999       2.534   2.060  -2.153  1.00  0.00    -0.334 OA
HETATM   12  C5  LIG X 999       1.495   1.476  -1.601  1.00  0.00     0.150 A 
ENDBRANCH   7   8
ENDBRANCH   1   7
BRANCH   2  13
HETATM   13  C7  LIG X 999      -1.278  -0.393   1.042  1.00  0.00     0.214 C 
HETATM   14  C8  LIG X 999      -1.487   1.085   0.753  1.00  0.00     0.044 C 
HETATM   15  C9  LIG X 999      -2.739   1.394   1.510  1.00  0.00     0.029 C 
HETATM   16  C10 LIG X 999      -2.718   0.378   2.634  1.00  0.00     0.168 C 
HETATM   17  O3  LIG X 999      -1.889  -0.705   2.276  1.00  0.00    -0.376 OA
ENDBRANCH   2  13
TORSDOF 4
