REMARK  4 active torsions:
REMARK  status: ('A' for Active; 'I' for Inactive)
REMARK    1  A    between atoms: C2_2  and  C4_5 
REMARK       I    between atoms: C4_5  and  N1_7 
REMARK    2  A    between atoms: N1_7  and  N2_8 
REMARK    3  A    between atoms: N1_7  and  C5_9 
REMARK    4  A    between atoms: C5_9  and  C6_10 
ROOT
HETATM    1  C4  LIG X 999      -2.087  -0.088  -1.399  1.00  0.00     0.273 C 
HETATM    2  O1  LIG X 999      -2.469  -0.732  -2.413  1.00  0.00    -0.268 OA
HETATM    3  N1  LIG X 999      -0.800   0.560  -1.433  1.00  0.00    -0.278 N 
ENDROOT
BRANCH   3   4
HETATM    4  N2  LIG X 999      -0.512   1.467  -2.467  1.00  0.00    -0.244 NA
HETATM    5  H7  LIG X 999      -1.208   2.244  -2.409  1.00  0.00     0.143 HD
HETATM    6  H8  LIG X 999      -0.656   0.975  -3.379  1.00  0.00     0.143 HD
ENDBRANCH   3   4
BRANCH   3   7
HETATM    7  C5  LIG X 999       0.282   0.164  -0.530  1.00  0.00     0.186 C 
BRANCH   7   8
HETATM    8  C6  LIG X 999       0.652  -1.273  -0.744  1.00  0.00    -0.015 A 
HETATM    9  C7  LIG X 999       0.769  -2.247   0.224  1.00  0.00     0.035 A 
HETATM   10  C8  LIG X 999       1.161  -3.387  -0.447  1.00  0.00     0.142 A 
HETATM   11  O2  LIG X 999       1.285  -3.129  -1.730  1.00  0.00    -0.334 OA
HETATM   12  C9  LIG X 999       0.991  -1.867  -1.942  1.00  0.00     0.150 A 
ENDBRANCH   7   8
ENDBRANCH   3   7
BRANCH   1  13
HETATM   13  C2  LIG X 999      -3.005  -0.004  -0.197  1.00  0.00     0.177 C 
HETATM   14  C1  LIG X 999      -2.929   1.374   0.474  1.00  0.00     0.062 C 
HETATM   15  C3  LIG X 999      -2.696  -1.121   0.806  1.00  0.00     0.062 C 
HETATM   16  F1  LIG X 999      -4.309  -0.179  -0.634  1.00  0.00    -0.233 F 
ENDBRANCH   1  13
TORSDOF 4
