REMARK  4 active torsions:
REMARK  status: ('A' for Active; 'I' for Inactive)
REMARK    1  A    between atoms: C2_2  and  C3_3 
REMARK    2  A    between atoms: C3_3  and  O1_5 
REMARK    3  A    between atoms: O1_5  and  C5_6 
REMARK       I    between atoms: C5_6  and  N1_8 
REMARK    4  A    between atoms: N1_8  and  C6_9 
ROOT
HETATM    1  C5  LIG X 999      -0.106   0.029  -0.368  1.00  0.00     0.365 C 
HETATM    2  O2  LIG X 999      -0.397  -1.076   0.167  1.00  0.00    -0.238 OA
HETATM    3  N1  LIG X 999      -0.746   1.238   0.063  1.00  0.00    -0.303 N 
HETATM    4  H10 LIG X 999      -0.298   2.140  -0.217  1.00  0.00     0.171 HD
ENDROOT
BRANCH   3   5
HETATM    5  C6  LIG X 999      -1.881   1.285   0.945  1.00  0.00     0.041 A 
HETATM    6  C7  LIG X 999      -2.892   0.307   0.895  1.00  0.00     0.069 A 
HETATM    7  C8  LIG X 999      -3.997   0.391   1.748  1.00  0.00     0.111 A 
HETATM    8  O3  LIG X 999      -4.989  -0.580   1.697  1.00  0.00    -0.192 OA
HETATM    9  C9  LIG X 999      -4.109   1.455   2.648  1.00  0.00     0.064 A 
HETATM   10  C10 LIG X 999      -3.121   2.444   2.688  1.00  0.00     0.038 A 
HETATM   11 CL1  LIG X 999      -3.268   3.787   3.807  1.00  0.00    -0.084 Cl
HETATM   12  C11 LIG X 999      -2.015   2.363   1.834  1.00  0.00     0.053 A 
ENDBRANCH   3   5
BRANCH   1  13
HETATM   13  O1  LIG X 999       0.871   0.098  -1.367  1.00  0.00    -0.299 OA
BRANCH  13  14
HETATM   14  C3  LIG X 999       1.619  -1.031  -1.823  1.00  0.00     0.129 C 
HETATM   15  C4  LIG X 999       2.672  -1.434  -0.782  1.00  0.00     0.040 C 
BRANCH  14  16
HETATM   16  C2  LIG X 999       2.252  -0.715  -3.191  1.00  0.00     0.028 C 
HETATM   17  C1  LIG X 999       3.169   0.509  -3.174  1.00  0.00     0.007 C 
ENDBRANCH  14  16
ENDBRANCH  13  14
ENDBRANCH   1  13
TORSDOF 4
