REMARK  2 active torsions:
REMARK  status: ('A' for Active; 'I' for Inactive)
REMARK    1  A    between atoms: N1_1  and  C1_2 
REMARK    2  A    between atoms: C6_9  and  C7_10 
ROOT
HETATM    1  C1  LIG X 999      -0.221  -0.835   0.113  1.00  0.00     0.043 A 
HETATM    2  C2  LIG X 999       1.123  -1.091  -0.198  1.00  0.00     0.054 A 
HETATM    3  C3  LIG X 999       2.004  -0.043  -0.472  1.00  0.00     0.039 A 
HETATM    4 CL1  LIG X 999       3.685  -0.383  -0.841  1.00  0.00    -0.084 Cl
HETATM    5  C4  LIG X 999       1.550   1.275  -0.436  1.00  0.00     0.065 A 
HETATM    6  C5  LIG X 999       0.211   1.552  -0.151  1.00  0.00     0.124 A 
HETATM    7  O1  LIG X 999      -0.214   2.877  -0.147  1.00  0.00    -0.191 OA
HETATM    8  C6  LIG X 999      -0.698   0.504   0.108  1.00  0.00     0.064 A 
ENDROOT
BRANCH   1   9
HETATM    9  N1  LIG X 999      -1.058  -1.939   0.486  1.00  0.00    -0.398 N 
HETATM   10  H1  LIG X 999      -0.727  -2.920   0.348  1.00  0.00     0.156 HD
HETATM   11  H2  LIG X 999      -1.933  -1.809   1.036  1.00  0.00     0.156 HD
ENDBRANCH   1   9
BRANCH   8  12
HETATM   12  C7  LIG X 999      -2.122   0.845   0.329  1.00  0.00     0.275 C 
HETATM   13  O2  LIG X 999      -3.046   0.051   0.010  1.00  0.00    -0.301 OA
ENDBRANCH   8  12
TORSDOF 2
