REMARK  3 active torsions:
REMARK  status: ('A' for Active; 'I' for Inactive)
REMARK    1  A    between atoms: C2_2  and  N1_3 
REMARK    2  A    between atoms: C7_8  and  O1_9 
REMARK    3  A    between atoms: C8_10  and  C9_11 
ROOT
HETATM    1  N1  LIG X 999       0.091   0.252   1.202  1.00  0.00    -0.372 N 
HETATM    2  C3  LIG X 999      -1.176  -0.205   0.622  1.00  0.00     0.113 C 
HETATM    3  C4  LIG X 999      -1.251  -1.629   1.133  1.00  0.00     0.035 C 
HETATM    4  C5  LIG X 999       0.115  -2.006   0.595  1.00  0.00     0.019 C 
HETATM    5  C6  LIG X 999      -0.066  -1.694  -0.907  1.00  0.00     0.041 C 
HETATM    6  C7  LIG X 999      -0.928  -0.408  -0.888  1.00  0.00     0.141 C 
HETATM    7  C8  LIG X 999       0.999  -0.896   1.215  1.00  0.00     0.150 C 
ENDROOT
BRANCH   1   8
HETATM    8  C2  LIG X 999       0.549   1.610   1.318  1.00  0.00     0.076 C 
HETATM    9  C1  LIG X 999      -0.230   2.656   1.046  1.00  0.00     0.029 C 
ENDBRANCH   1   8
BRANCH   7  10
HETATM   10  C9  LIG X 999       1.423  -1.227   2.620  1.00  0.00     0.256 C 
HETATM   11  O2  LIG X 999       2.195  -2.150   2.827  1.00  0.00    -0.305 OA
ENDBRANCH   7  10
BRANCH   6  12
HETATM   12  O1  LIG X 999      -2.122  -0.537  -1.622  1.00  0.00    -0.393 OA
HETATM   13  H11 LIG X 999      -2.631  -1.310  -1.267  1.00  0.00     0.210 HD
ENDBRANCH   6  12
TORSDOF 3
