REMARK  4 active torsions:
REMARK  status: ('A' for Active; 'I' for Inactive)
REMARK    1  A    between atoms: C2_2  and  C3_3 
REMARK    2  A    between atoms: C4_6  and  C5_7 
REMARK    3  A    between atoms: C5_7  and  C6_8 
REMARK    4  A    between atoms: C6_8  and  C7_10 
ROOT
HETATM    1  C5  LIG X 999       1.353   0.326  -1.323  1.00  0.00     0.119 C 
ENDROOT
BRANCH   1   2
HETATM    2  C4  LIG X 999       1.904  -0.986  -0.741  1.00  0.00     0.167 A 
HETATM    3  O1  LIG X 999       2.006  -0.897   0.673  1.00  0.00    -0.250 OA
HETATM    4  N1  LIG X 999       1.255  -1.841   1.321  1.00  0.00    -0.143 NA
HETATM    5  C3  LIG X 999       0.640  -2.568   0.455  1.00  0.00     0.042 A 
HETATM    6  C11 LIG X 999       0.940  -2.170  -0.951  1.00  0.00     0.092 A 
BRANCH   5   7
HETATM    7  C2  LIG X 999      -0.257  -3.704   0.842  1.00  0.00     0.052 C 
HETATM    8  C1  LIG X 999      -1.499  -3.195   1.566  1.00  0.00     0.011 C 
ENDBRANCH   5   7
ENDBRANCH   1   2
BRANCH   1   9
HETATM    9  C6  LIG X 999       2.270   1.504  -1.104  1.00  0.00     0.169 C 
HETATM   10  O2  LIG X 999       3.462   1.322  -0.735  1.00  0.00    -0.292 OA
BRANCH   9  11
HETATM   11  C7  LIG X 999       1.804   2.879  -1.359  1.00  0.00     0.052 A 
HETATM   12  C8  LIG X 999       0.557   3.255  -1.856  1.00  0.00     0.025 A 
HETATM   13  C9  LIG X 999       0.412   4.641  -1.997  1.00  0.00     0.033 A 
HETATM   14  C10 LIG X 999       1.541   5.349  -1.614  1.00  0.00     0.075 A 
HETATM   15 CL1  LIG X 999       1.720   7.090  -1.658  1.00  0.00    -0.076 Cl
HETATM   16  S1  LIG X 999       2.721   4.269  -1.102  1.00  0.00    -0.074 SA
ENDBRANCH   9  11
ENDBRANCH   1   9
TORSDOF 4
