REMARK  5 active torsions:
REMARK  status: ('A' for Active; 'I' for Inactive)
REMARK    1  A    between atoms: C2_2  and  C3_4 
REMARK    2  A    between atoms: C3_4  and  C4_7 
REMARK    3  A    between atoms: C4_7  and  O2_8 
REMARK    4  A    between atoms: C4_7  and  C5_9 
REMARK    5  A    between atoms: C10_14  and  C11_15 
ROOT
HETATM    1  C5  LIG X 999       0.768  -1.413   0.316  1.00  0.00    -0.017 A 
HETATM    2  C6  LIG X 999      -0.293  -1.997   1.041  1.00  0.00     0.010 A 
HETATM    3  C7  LIG X 999      -0.555  -3.363   0.963  1.00  0.00     0.001 A 
HETATM    4  C8  LIG X 999       0.214  -4.174   0.136  1.00  0.00     0.001 A 
HETATM    5  C9  LIG X 999       1.268  -3.627  -0.592  1.00  0.00     0.008 A 
HETATM    6  C10 LIG X 999       1.597  -2.260  -0.483  1.00  0.00    -0.045 A 
ENDROOT
BRANCH   1   7
HETATM    7  C4  LIG X 999       0.861   0.112   0.342  1.00  0.00     0.232 C 
BRANCH   7   8
HETATM    8  C3  LIG X 999       0.029   0.751  -0.803  1.00  0.00     0.331 C 
HETATM    9  F1  LIG X 999       0.499   0.319  -2.032  1.00  0.00    -0.194 F 
HETATM   10  F2  LIG X 999      -1.291   0.344  -0.693  1.00  0.00    -0.194 F 
BRANCH   8  11
HETATM   11  C2  LIG X 999       0.066   2.261  -0.713  1.00  0.00     0.197 C 
HETATM   12  C1  LIG X 999       0.789   3.112  -1.718  1.00  0.00     0.098 C 
HETATM   13  O1  LIG X 999      -0.512   2.815   0.211  1.00  0.00    -0.292 OA
ENDBRANCH   8  11
ENDBRANCH   7   8
BRANCH   7  14
HETATM   14  O2  LIG X 999       2.194   0.560   0.385  1.00  0.00    -0.384 OA
HETATM   15  H5  LIG X 999       2.462   0.878  -0.516  1.00  0.00     0.210 HD
ENDBRANCH   7  14
ENDBRANCH   1   7
BRANCH   6  16
HETATM   16  C11 LIG X 999       2.769  -1.732  -1.287  1.00  0.00     0.019 A 
HETATM   17  C12 LIG X 999       3.995  -2.643  -1.395  1.00  0.00     0.010 A 
HETATM   18  C13 LIG X 999       4.028  -1.444  -0.473  1.00  0.00     0.010 A 
ENDBRANCH   6  16
TORSDOF 5
