REMARK  2 active torsions:
REMARK  status: ('A' for Active; 'I' for Inactive)
REMARK    1  A    between atoms: C6_7  and  C7_8 
REMARK       I    between atoms: C7_8  and  N1_10 
REMARK    2  A    between atoms: N1_10  and  C8_11 
ROOT
HETATM    1  C7  LIG X 999      -1.296  -0.525  -0.075  1.00  0.00     0.228 C 
HETATM    2  O2  LIG X 999      -1.890   0.523   0.301  1.00  0.00    -0.273 OA
HETATM    3  N1  LIG X 999      -0.269  -0.457  -1.076  1.00  0.00    -0.327 N 
HETATM    4  H12 LIG X 999       0.006  -1.344  -1.556  1.00  0.00     0.169 HD
ENDROOT
BRANCH   3   5
HETATM    5  C8  LIG X 999       0.344   0.766  -1.519  1.00  0.00     0.039 A 
HETATM    6  C9  LIG X 999       0.779   0.875  -2.849  1.00  0.00     0.069 A 
HETATM    7  C10 LIG X 999       1.400   2.045  -3.298  1.00  0.00     0.111 A 
HETATM    8  O3  LIG X 999       1.814   2.148  -4.620  1.00  0.00    -0.192 OA
HETATM    9  C11 LIG X 999       1.606   3.110  -2.416  1.00  0.00     0.064 A 
HETATM   10  C12 LIG X 999       1.199   3.003  -1.083  1.00  0.00     0.038 A 
HETATM   11 CL1  LIG X 999       1.482   4.330   0.029  1.00  0.00    -0.084 Cl
HETATM   12  C13 LIG X 999       0.577   1.834  -0.632  1.00  0.00     0.053 A 
ENDBRANCH   3   5
BRANCH   1  13
HETATM   13  C6  LIG X 999      -1.647  -1.859   0.547  1.00  0.00     0.106 C 
HETATM   14  C2  LIG X 999      -0.675  -2.307   1.699  1.00  0.00     0.130 C 
HETATM   15  C1  LIG X 999       0.001  -1.130   2.416  1.00  0.00     0.040 C 
HETATM   16  O1  LIG X 999      -1.325  -3.089   2.698  1.00  0.00    -0.385 OA
HETATM   17  C3  LIG X 999      -2.209  -4.028   2.121  1.00  0.00     0.168 C 
HETATM   18  C4  LIG X 999      -3.447  -3.319   1.547  1.00  0.00     0.027 C 
HETATM   19  C5  LIG X 999      -3.103  -1.910   1.036  1.00  0.00     0.019 C 
ENDBRANCH   1  13
TORSDOF 2
