REMARK  11 active torsions:
REMARK  status: ('A' for Active; 'I' for Inactive)
REMARK    1  A    between atoms: C2_2  and  O1_5 
REMARK    2  A    between atoms: O1_5  and  C3_6 
REMARK    3  A    between atoms: C3_6  and  C4_7 
REMARK    4  A    between atoms: C4_7  and  N1_8 
REMARK    5  A    between atoms: C5_11  and  C6_12 
REMARK    6  A    between atoms: C6_12  and  C7_13 
REMARK       I    between atoms: C7_13  and  N4_15 
REMARK    7  A    between atoms: N4_15  and  C8_16 
REMARK    8  A    between atoms: N4_15  and  C11_20 
REMARK    9  A    between atoms: C8_16  and  C9_17 
REMARK   10  A    between atoms: C15_24  and  C16_25 
REMARK   11  A    between atoms: C16_25  and  O3_26 
ROOT
HETATM    1  C9  LIG X 999       1.163  -0.948  -3.314  1.00  0.00     0.144 C 
HETATM    2  C10 LIG X 999       2.626  -0.887  -3.205  1.00  0.00     0.060 C 
HETATM    3  N5  LIG X 999       3.779  -0.834  -3.119  1.00  0.00    -0.197 NA
ENDROOT
BRANCH   1   4
HETATM    4  C8  LIG X 999       0.502  -1.146  -1.942  1.00  0.00     0.148 C 
BRANCH   4   5
HETATM    5  N4  LIG X 999       0.753  -0.002  -1.050  1.00  0.00    -0.301 N 
HETATM    6  C7  LIG X 999      -0.087   1.169  -1.119  1.00  0.00     0.232 C 
HETATM    7  O2  LIG X 999      -0.818   1.359  -2.130  1.00  0.00    -0.273 OA
BRANCH   6   8
HETATM    8  C6  LIG X 999      -0.179   2.136   0.030  1.00  0.00     0.184 C 
BRANCH   8   9
HETATM    9  C5  LIG X 999      -0.921   1.507   1.165  1.00  0.00     0.147 A 
HETATM   10  N3  LIG X 999      -0.345   0.970   2.259  1.00  0.00    -0.268 N 
HETATM   11  N2  LIG X 999      -1.329   0.445   2.970  1.00  0.00    -0.001 NA
HETATM   12  H8  LIG X 999       0.669   0.939   2.511  1.00  0.00     0.185 HD
HETATM   13  N1  LIG X 999      -2.464   0.667   2.323  1.00  0.00    -0.191 N 
HETATM   14  N7  LIG X 999      -2.254   1.311   1.184  1.00  0.00    -0.143 NA
BRANCH  13  15
HETATM   15  C4  LIG X 999      -3.764   0.163   2.750  1.00  0.00     0.196 C 
BRANCH  15  16
HETATM   16  C3  LIG X 999      -3.945  -1.295   2.320  1.00  0.00     0.197 C 
BRANCH  16  17
HETATM   17  O1  LIG X 999      -3.528  -1.482   0.980  1.00  0.00    -0.325 OA
BRANCH  17  18
HETATM   18  C2  LIG X 999      -4.622  -1.489   0.082  1.00  0.00     0.350 C 
HETATM   19  C1  LIG X 999      -4.082  -1.544  -1.341  1.00  0.00     0.126 C 
HETATM   20  F1  LIG X 999      -5.384  -0.339   0.213  1.00  0.00    -0.176 F 
HETATM   21  F2  LIG X 999      -5.417  -2.606   0.299  1.00  0.00    -0.176 F 
ENDBRANCH  17  18
ENDBRANCH  16  17
ENDBRANCH  15  16
ENDBRANCH  13  15
ENDBRANCH   8   9
ENDBRANCH   6   8
BRANCH   5  22
HETATM   22  C11 LIG X 999       1.932   0.002  -0.226  1.00  0.00     0.132 A 
HETATM   23  C12 LIG X 999       2.166  -1.026   0.698  1.00  0.00     0.051 A 
HETATM   24  C13 LIG X 999       3.344  -1.017   1.451  1.00  0.00     0.006 A 
HETATM   25  C14 LIG X 999       4.276   0.007   1.275  1.00  0.00     0.029 A 
HETATM   26  C15 LIG X 999       4.006   1.029   0.355  1.00  0.00     0.060 A 
HETATM   27  N6  LIG X 999       2.856   0.992  -0.373  1.00  0.00    -0.233 NA
BRANCH  26  28
HETATM   28  C16 LIG X 999       5.009   2.113   0.097  1.00  0.00     0.223 C 
BRANCH  28  29
HETATM   29  O3  LIG X 999       5.908   1.709  -0.902  1.00  0.00    -0.395 OA
HETATM   30  H20 LIG X 999       5.425   1.774  -1.767  1.00  0.00     0.209 HD
ENDBRANCH  28  29
ENDBRANCH  26  28
ENDBRANCH   5  22
ENDBRANCH   4   5
ENDBRANCH   1   4
TORSDOF 11
