REMARK  3 active torsions:
REMARK  status: ('A' for Active; 'I' for Inactive)
REMARK    1  A    between atoms: C2_2  and  N1_3 
REMARK    2  A    between atoms: C7_8  and  O1_9 
REMARK    3  A    between atoms: C8_10  and  C9_11 
ROOT
HETATM    1  N1  LIG X 999       0.789  -0.340   0.460  1.00  0.00    -0.034 N 
HETATM    2  C3  LIG X 999      -0.423  -0.908  -0.192  1.00  0.00     0.223 C 
HETATM    3  C4  LIG X 999      -0.933   0.211  -1.082  1.00  0.00     0.043 C 
HETATM    4  C5  LIG X 999      -0.982   1.210   0.042  1.00  0.00     0.028 C 
HETATM    5  C6  LIG X 999      -1.924   0.504   1.037  1.00  0.00     0.041 C 
HETATM    6  C7  LIG X 999      -1.557  -0.984   0.858  1.00  0.00     0.149 C 
HETATM    7  C8  LIG X 999       0.463   1.114   0.583  1.00  0.00     0.258 C 
HETATM    8  H4  LIG X 999       0.879  -0.737   1.426  1.00  0.00     0.287 HD
ENDROOT
BRANCH   1   9
HETATM    9  C2  LIG X 999       2.058  -0.653  -0.188  1.00  0.00     0.191 C 
HETATM   10  C1  LIG X 999       2.210  -0.933  -1.492  1.00  0.00     0.037 C 
ENDBRANCH   1   9
BRANCH   7  11
HETATM   11  C9  LIG X 999       1.391   2.049  -0.172  1.00  0.00     0.265 C 
HETATM   12  O2  LIG X 999       2.517   2.267   0.247  1.00  0.00    -0.305 OA
ENDBRANCH   7  11
BRANCH   6  13
HETATM   13  O1  LIG X 999      -2.641  -1.716   0.348  1.00  0.00    -0.393 OA
HETATM   14  H12 LIG X 999      -3.278  -1.833   1.100  1.00  0.00     0.210 HD
ENDBRANCH   6  13
TORSDOF 3
