REMARK  3 active torsions:
REMARK  status: ('A' for Active; 'I' for Inactive)
REMARK    1  A    between atoms: C4_4  and  N1_5 
REMARK    2  A    between atoms: N1_5  and  C5_6 
REMARK    3  A    between atoms: C5_6  and  C6_7 
ROOT
HETATM    1  N1  LIG X 999       0.577   0.538  -1.339  1.00  0.00     0.095 N 
HETATM    2  H8  LIG X 999      -0.017   0.644  -2.197  1.00  0.00     0.316 HD
ENDROOT
BRANCH   1   3
HETATM    3  C4  LIG X 999      -0.263   0.122  -0.197  1.00  0.00     0.251 C 
HETATM    4  C3  LIG X 999      -1.137   1.268   0.244  1.00  0.00     0.069 C 
HETATM    5  C2  LIG X 999      -2.471   0.950  -0.404  1.00  0.00     0.120 C 
HETATM    6  C1  LIG X 999      -3.643   1.524   0.391  1.00  0.00     0.039 C 
HETATM    7  O2  LIG X 999      -2.591  -0.448  -0.493  1.00  0.00    -0.379 OA
HETATM    8  C10 LIG X 999      -1.283  -0.973  -0.582  1.00  0.00     0.151 C 
HETATM    9  C11 LIG X 999      -1.172  -2.189   0.339  1.00  0.00     0.042 C 
ENDBRANCH   1   3
BRANCH   1  10
HETATM   10  C5  LIG X 999       1.650  -0.424  -1.624  1.00  0.00     0.310 C 
BRANCH  10  11
HETATM   11  C6  LIG X 999       2.780  -0.249  -0.657  1.00  0.00    -0.006 A 
HETATM   12  C7  LIG X 999       3.123  -1.097   0.374  1.00  0.00     0.035 A 
HETATM   13  C8  LIG X 999       4.191  -0.494   1.006  1.00  0.00     0.142 A 
HETATM   14  O1  LIG X 999       4.477   0.643   0.411  1.00  0.00    -0.334 OA
HETATM   15  C9  LIG X 999       3.647   0.823  -0.590  1.00  0.00     0.150 A 
ENDBRANCH  10  11
ENDBRANCH   1  10
TORSDOF 3
