REMARK  3 active torsions:
REMARK  status: ('A' for Active; 'I' for Inactive)
REMARK    1  A    between atoms: N1_1  and  N2_2 
REMARK    2  A    between atoms: N2_2  and  C1_3 
REMARK    3  A    between atoms: C1_3  and  C2_4 
ROOT
HETATM    1  N2  LIG X 999      -1.166   0.001  -0.805  1.00  0.00    -0.012 N 
HETATM    2  H3  LIG X 999      -0.951   0.504   0.088  1.00  0.00     0.299 HD
HETATM    3  H4  LIG X 999      -1.738  -0.851  -0.595  1.00  0.00     0.299 HD
ENDROOT
BRANCH   1   4
HETATM    4  N1  LIG X 999      -1.934   0.859  -1.622  1.00  0.00    -0.164 NA
HETATM    5  H1  LIG X 999      -2.158   0.371  -2.521  1.00  0.00     0.149 HD
HETATM    6  H2  LIG X 999      -1.376   1.717  -1.842  1.00  0.00     0.149 HD
ENDBRANCH   1   4
BRANCH   1   7
HETATM    7  C1  LIG X 999       0.082  -0.381  -1.486  1.00  0.00     0.293 C 
BRANCH   7   8
HETATM    8  C2  LIG X 999       0.894  -1.291  -0.615  1.00  0.00    -0.007 A 
HETATM    9  C3  LIG X 999       1.812  -0.912   0.340  1.00  0.00     0.035 A 
HETATM   10  C4  LIG X 999       2.237  -2.086   0.928  1.00  0.00     0.142 A 
HETATM   11  O1  LIG X 999       1.616  -3.108   0.383  1.00  0.00    -0.334 OA
HETATM   12  C5  LIG X 999       0.796  -2.665  -0.543  1.00  0.00     0.150 A 
ENDBRANCH   7   8
ENDBRANCH   1   7
TORSDOF 3
