REMARK  4 active torsions:
REMARK  status: ('A' for Active; 'I' for Inactive)
REMARK    1  A    between atoms: C1_2  and  C2_3 
REMARK    2  A    between atoms: C5_6  and  C6_7 
REMARK    3  A    between atoms: C6_7  and  C7_9 
REMARK    4  A    between atoms: C10_12  and  O3_13 
ROOT
HETATM    1  C6  LIG X 999      -0.249  -0.383   2.213  1.00  0.00     0.192 C 
HETATM    2  O2  LIG X 999      -0.362  -0.302   3.467  1.00  0.00    -0.287 OA
ENDROOT
BRANCH   1   3
HETATM    3  C5  LIG X 999      -1.480  -0.422   1.385  1.00  0.00     0.015 A 
HETATM    4  C4  LIG X 999      -1.512   0.166   0.108  1.00  0.00     0.016 A 
HETATM    5  C3  LIG X 999      -2.683   0.139  -0.655  1.00  0.00     0.015 A 
HETATM    6  C2  LIG X 999      -3.844  -0.467  -0.154  1.00  0.00     0.002 A 
HETATM    7  C14 LIG X 999      -3.820  -1.040   1.128  1.00  0.00     0.015 A 
HETATM    8  C13 LIG X 999      -2.649  -1.012   1.892  1.00  0.00     0.016 A 
BRANCH   6   9
HETATM    9  C1  LIG X 999      -5.069  -0.486  -0.974  1.00  0.00     0.269 C 
HETATM   10  O1  LIG X 999      -6.128  -1.020  -0.550  1.00  0.00    -0.301 OA
ENDBRANCH   6   9
ENDBRANCH   1   3
BRANCH   1  11
HETATM   11  C7  LIG X 999       1.109  -0.436   1.619  1.00  0.00     0.018 A 
HETATM   12  C8  LIG X 999       2.176   0.229   2.247  1.00  0.00     0.018 A 
HETATM   13  C9  LIG X 999       3.463   0.173   1.706  1.00  0.00     0.040 A 
HETATM   14  C10 LIG X 999       3.707  -0.557   0.538  1.00  0.00     0.102 A 
HETATM   15  C11 LIG X 999       2.651  -1.240  -0.087  1.00  0.00     0.141 A 
HETATM   16  O4  LIG X 999       2.876  -1.979  -1.243  1.00  0.00    -0.189 OA
HETATM   17  C12 LIG X 999       1.362  -1.182   0.454  1.00  0.00     0.058 A 
BRANCH  14  18
HETATM   18  O3  LIG X 999       5.000  -0.595   0.018  1.00  0.00    -0.358 OA
HETATM   19  H6  LIG X 999       5.226  -1.110  -0.825  1.00  0.00     0.217 HD
ENDBRANCH  14  18
ENDBRANCH   1  11
TORSDOF 4
