REMARK  6 active torsions:
REMARK  status: ('A' for Active; 'I' for Inactive)
REMARK    1  A    between atoms: C1_1  and  C2_2 
REMARK       I    between atoms: C2_2  and  N1_4 
REMARK    2  A    between atoms: N1_4  and  N2_5 
REMARK    3  A    between atoms: N1_4  and  C3_8 
REMARK    4  A    between atoms: C3_8  and  C4_9 
REMARK    5  A    between atoms: C8_14  and  C10_16 
REMARK    6  A    between atoms: C10_16  and  O3_17 
ROOT
HETATM    1  C2  LIG X 999       0.181  -1.284  -0.711  1.00  0.00     0.258 C 
HETATM    2  O1  LIG X 999      -0.122  -2.438  -0.305  1.00  0.00    -0.267 OA
HETATM    3  N1  LIG X 999      -0.772  -0.509  -1.459  1.00  0.00    -0.277 N 
ENDROOT
BRANCH   3   4
HETATM    4  N2  LIG X 999      -0.306   0.423  -2.404  1.00  0.00    -0.244 NA
HETATM    5  H2  LIG X 999      -0.530   0.047  -3.353  1.00  0.00     0.143 HD
HETATM    6  H3  LIG X 999      -0.849   1.308  -2.279  1.00  0.00     0.143 HD
ENDBRANCH   3   4
BRANCH   3   7
HETATM    7  C3  LIG X 999      -2.209  -0.780  -1.346  1.00  0.00     0.186 C 
BRANCH   7   8
HETATM    8  C4  LIG X 999      -2.715  -0.290  -0.026  1.00  0.00    -0.015 A 
HETATM    9  C5  LIG X 999      -2.879  -1.036   1.123  1.00  0.00     0.150 A 
HETATM   10  O2  LIG X 999      -3.255  -0.244   2.101  1.00  0.00    -0.334 OA
HETATM   11  C6  LIG X 999      -3.332   0.988   1.648  1.00  0.00     0.142 A 
HETATM   12  C7  LIG X 999      -2.994   1.016   0.311  1.00  0.00     0.035 A 
ENDBRANCH   7   8
ENDBRANCH   3   7
BRANCH   1  13
HETATM   13  C1  LIG X 999       1.538  -0.776  -0.452  1.00  0.00     0.080 C 
HETATM   14  C8  LIG X 999       1.794   0.382   0.186  1.00  0.00    -0.055 C 
HETATM   15  C9  LIG X 999       0.689   1.231   0.765  1.00  0.00     0.046 C 
BRANCH  14  16
HETATM   16  C10 LIG X 999       3.231   0.800   0.390  1.00  0.00     0.201 C 
BRANCH  16  17
HETATM   17  O3  LIG X 999       3.876   0.999  -0.854  1.00  0.00    -0.392 OA
HETATM   18  C11 LIG X 999       3.611   2.299  -1.336  1.00  0.00     0.201 C 
ENDBRANCH  16  17
ENDBRANCH  14  16
ENDBRANCH   1  13
TORSDOF 6
