REMARK  2 active torsions:
REMARK  status: ('A' for Active; 'I' for Inactive)
REMARK    1  A    between atoms: C1_2  and  C2_3 
REMARK    2  A    between atoms: C7_9  and  C8_10 
ROOT
HETATM    1  C2  LIG X 999      -0.801  -0.011   1.223  1.00  0.00     0.008 A 
HETATM    2  C3  LIG X 999      -1.319   1.013   2.035  1.00  0.00     0.017 A 
HETATM    3  C4  LIG X 999      -0.475   1.955   2.624  1.00  0.00     0.025 A 
HETATM    4  C5  LIG X 999       0.902   1.886   2.418  1.00  0.00     0.034 A 
HETATM    5 CL1  LIG X 999       1.963   3.055   3.183  1.00  0.00    -0.084 Cl
HETATM    6  C6  LIG X 999       1.435   0.888   1.600  1.00  0.00     0.032 A 
HETATM    7  C7  LIG X 999       0.597  -0.045   0.962  1.00  0.00    -0.039 A 
ENDROOT
BRANCH   7   8
HETATM    8  C8  LIG X 999       1.226  -1.087   0.064  1.00  0.00     0.019 A 
HETATM    9  C9  LIG X 999       2.219  -0.562  -0.970  1.00  0.00     0.010 A 
HETATM   10  C10 LIG X 999       0.832  -0.988  -1.405  1.00  0.00     0.010 A 
ENDBRANCH   7   8
BRANCH   1  11
HETATM   11  C1  LIG X 999      -1.758  -1.014   0.698  1.00  0.00     0.270 C 
HETATM   12  O1  LIG X 999      -1.379  -2.122   0.237  1.00  0.00    -0.301 OA
ENDBRANCH   1  11
TORSDOF 2
