REMARK  1 active torsions:
REMARK  status: ('A' for Active; 'I' for Inactive)
REMARK    1  A    between atoms: N1_1  and  C1_2 
ROOT
HETATM    1  C1  LIG X 999      -0.971  -0.396   0.287  1.00  0.00     0.030 A 
HETATM    2  C2  LIG X 999       0.172  -1.208   0.252  1.00  0.00     0.069 A 
HETATM    3  C3  LIG X 999       1.417  -0.686   0.624  1.00  0.00     0.111 A 
HETATM    4  O1  LIG X 999       2.547  -1.494   0.588  1.00  0.00    -0.192 OA
HETATM    5  C4  LIG X 999       1.523   0.647   1.032  1.00  0.00     0.064 A 
HETATM    6  C5  LIG X 999       0.385   1.461   1.069  1.00  0.00     0.038 A 
HETATM    7 CL1  LIG X 999       0.520   3.133   1.581  1.00  0.00    -0.084 Cl
HETATM    8  C6  LIG X 999      -0.860   0.941   0.697  1.00  0.00     0.052 A 
ENDROOT
BRANCH   1   9
HETATM    9  N1  LIG X 999      -2.243  -0.929  -0.093  1.00  0.00    -0.399 N 
HETATM   10  H1  LIG X 999      -2.336  -1.923  -0.400  1.00  0.00     0.156 HD
HETATM   11  H2  LIG X 999      -3.100  -0.333  -0.071  1.00  0.00     0.156 HD
ENDBRANCH   1   9
TORSDOF 1
