REMARK  2 active torsions:
REMARK  status: ('A' for Active; 'I' for Inactive)
REMARK    1  A    between atoms: C1_2  and  C2_3 
REMARK    2  A    between atoms: C7_8  and  C8_9 
ROOT
HETATM    1  C2  LIG X 999       1.161   0.400  -0.138  1.00  0.00     0.008 A 
HETATM    2  C3  LIG X 999       2.292  -0.434  -0.048  1.00  0.00     0.015 A 
HETATM    3  C4  LIG X 999       2.243  -1.627   0.676  1.00  0.00     0.001 A 
HETATM    4  C5  LIG X 999       1.070  -2.000   1.329  1.00  0.00     0.001 A 
HETATM    5  C6  LIG X 999      -0.064  -1.191   1.246  1.00  0.00     0.008 A 
HETATM    6  C7  LIG X 999      -0.047  -0.005   0.489  1.00  0.00    -0.041 A 
ENDROOT
BRANCH   6   7
HETATM    7  C8  LIG X 999      -1.294   0.847   0.437  1.00  0.00     0.019 A 
HETATM    8  C9  LIG X 999      -1.924   0.974  -0.946  1.00  0.00     0.010 A 
HETATM    9  C10 LIG X 999      -2.591   0.113   0.108  1.00  0.00     0.010 A 
ENDBRANCH   6   7
BRANCH   1  10
HETATM   10  C1  LIG X 999       1.264   1.689  -0.862  1.00  0.00     0.270 C 
HETATM   11  O1  LIG X 999       2.312   2.001  -1.486  1.00  0.00    -0.301 OA
ENDBRANCH   1  10
TORSDOF 2
