REMARK  5 active torsions:
REMARK  status: ('A' for Active; 'I' for Inactive)
REMARK    1  A    between atoms: C5_6  and  O1_7 
REMARK    2  A    between atoms: O1_7  and  C6_8 
REMARK    3  A    between atoms: C6_8  and  C7_9 
REMARK    4  A    between atoms: C7_9  and  N2_10 
REMARK    5  A    between atoms: C7_9  and  C8_11 
ROOT
HETATM    1  N1  LIG X 999       5.556  -2.157   1.435  1.00  0.00    -0.191 NA
HETATM    2  C1  LIG X 999       4.837  -1.497   0.814  1.00  0.00     0.107 C 
HETATM    3  C2  LIG X 999       3.944  -0.678   0.044  1.00  0.00     0.087 A 
HETATM    4  C3  LIG X 999       4.207  -0.168  -1.221  1.00  0.00     0.033 A 
HETATM    5  C4  LIG X 999       3.154   0.599  -1.732  1.00  0.00     0.046 A 
HETATM    6  C5  LIG X 999       2.074   0.683  -0.865  1.00  0.00     0.111 A 
HETATM    7  S1  LIG X 999       2.415  -0.187   0.541  1.00  0.00    -0.054 SA
ENDROOT
BRANCH   6   8
HETATM    8  O1  LIG X 999       0.903   1.395  -1.140  1.00  0.00    -0.342 OA
BRANCH   8   9
HETATM    9  C6  LIG X 999      -0.234   1.412  -0.278  1.00  0.00     0.209 C 
BRANCH   9  10
HETATM   10  C7  LIG X 999      -1.054   0.113  -0.415  1.00  0.00     0.211 C 
BRANCH  10  11
HETATM   11  N2  LIG X 999      -1.593  -0.028  -1.776  1.00  0.00    -0.073 N 
HETATM   12  H6  LIG X 999      -0.812   0.012  -2.470  1.00  0.00     0.274 HD
HETATM   13  H7  LIG X 999      -2.271   0.735  -2.000  1.00  0.00     0.274 HD
HETATM   14  H8  LIG X 999      -2.048  -0.963  -1.885  1.00  0.00     0.274 HD
ENDBRANCH  10  11
BRANCH  10  15
HETATM   15  C8  LIG X 999      -2.123   0.032   0.712  1.00  0.00     0.018 A 
HETATM   16  C9  LIG X 999      -3.204   1.107   0.702  1.00  0.00     0.007 A 
HETATM   17  C10 LIG X 999      -3.570  -0.334   0.388  1.00  0.00     0.007 A 
ENDBRANCH  10  15
ENDBRANCH   9  10
ENDBRANCH   8   9
ENDBRANCH   6   8
TORSDOF 5
