REMARK  0 active torsions:
REMARK  status: ('A' for Active; 'I' for Inactive)
ROOT
HETATM    1  N1  LIG X 999      -0.004   5.054  -0.208  1.00  0.00    -0.191 NA
HETATM    2  C1  LIG X 999       0.042   3.902  -0.305  1.00  0.00     0.107 C 
HETATM    3  C2  LIG X 999       0.099   2.472  -0.425  1.00  0.00     0.086 A 
HETATM    4  C3  LIG X 999      -0.199   1.747  -1.570  1.00  0.00     0.032 A 
HETATM    5  C4  LIG X 999      -0.056   0.366  -1.394  1.00  0.00     0.033 A 
HETATM    6  C5  LIG X 999       0.354   0.021  -0.113  1.00  0.00     0.075 A 
HETATM    7 CL1  LIG X 999       0.634  -1.608   0.465  1.00  0.00    -0.076 Cl
HETATM    8  S1  LIG X 999       0.540   1.417   0.807  1.00  0.00    -0.067 SA
ENDROOT
TORSDOF 0
