REMARK  8 active torsions:
REMARK  status: ('A' for Active; 'I' for Inactive)
REMARK    1  A    between atoms: C3_3  and  C4_4 
REMARK    2  A    between atoms: C4_4  and  O1_6 
REMARK    3  A    between atoms: O1_6  and  C6_7 
REMARK    4  A    between atoms: C10_11  and  N1_12 
REMARK    5  A    between atoms: C11_15  and  N2_16 
REMARK    6  A    between atoms: N2_16  and  N3_17 
REMARK    7  A    between atoms: N2_16  and  C12_18 
REMARK    8  A    between atoms: C12_18  and  C13_19 
ROOT
HETATM    1  C1  LIG X 999       1.616  -2.744  -1.177  1.00  0.00     0.012 C 
HETATM    2  C2  LIG X 999       0.485  -2.778  -0.760  1.00  0.00    -0.115 C 
HETATM    3  C3  LIG X 999      -0.886  -2.826  -0.241  1.00  0.00     0.125 C 
ENDROOT
BRANCH   3   4
HETATM    4  C4  LIG X 999      -1.738  -1.647  -0.742  1.00  0.00     0.136 C 
HETATM    5  C5  LIG X 999      -3.151  -1.755  -0.170  1.00  0.00     0.041 C 
BRANCH   4   6
HETATM    6  O1  LIG X 999      -1.181  -0.400  -0.313  1.00  0.00    -0.343 OA
BRANCH   6   7
HETATM    7  C6  LIG X 999      -0.298   0.426  -1.033  1.00  0.00     0.099 A 
HETATM    8  C7  LIG X 999       0.186   0.089  -2.312  1.00  0.00     0.039 A 
HETATM    9  C8  LIG X 999       1.080   0.929  -2.972  1.00  0.00     0.005 A 
HETATM   10  C9  LIG X 999       1.491   2.121  -2.382  1.00  0.00     0.038 A 
HETATM   11  C10 LIG X 999       1.009   2.499  -1.119  1.00  0.00     0.133 A 
HETATM   12  C11 LIG X 999       0.116   1.634  -0.436  1.00  0.00     0.112 A 
BRANCH  11  13
HETATM   13  N1  LIG X 999       1.423   3.759  -0.558  1.00  0.00    -0.113 N 
HETATM   14  O2  LIG X 999       0.685   4.385   0.230  1.00  0.00    -0.532 OA
HETATM   15  O3  LIG X 999       2.586   4.358  -0.988  1.00  0.00    -0.532 OA
ENDBRANCH  11  13
BRANCH  12  16
HETATM   16  N2  LIG X 999      -0.337   1.946   0.894  1.00  0.00    -0.306 N 
BRANCH  16  17
HETATM   17  N3  LIG X 999      -1.654   2.388   1.111  1.00  0.00    -0.247 NA
HETATM   18  H11 LIG X 999      -1.812   3.229   0.510  1.00  0.00     0.143 HD
HETATM   19  H12 LIG X 999      -2.306   1.640   0.784  1.00  0.00     0.143 HD
ENDBRANCH  16  17
BRANCH  16  20
HETATM   20  C12 LIG X 999       0.566   1.801   2.035  1.00  0.00     0.183 C 
BRANCH  20  21
HETATM   21  C13 LIG X 999       0.816   0.353   2.320  1.00  0.00    -0.015 A 
HETATM   22  C14 LIG X 999       0.036  -0.479   3.094  1.00  0.00     0.035 A 
HETATM   23  C15 LIG X 999       0.636  -1.719   3.016  1.00  0.00     0.142 A 
HETATM   24  O4  LIG X 999       1.693  -1.656   2.238  1.00  0.00    -0.334 OA
HETATM   25  C16 LIG X 999       1.826  -0.426   1.796  1.00  0.00     0.150 A 
ENDBRANCH  20  21
ENDBRANCH  16  20
ENDBRANCH  12  16
ENDBRANCH   6   7
ENDBRANCH   4   6
ENDBRANCH   3   4
TORSDOF 8
