REMARK  6 active torsions:
REMARK  status: ('A' for Active; 'I' for Inactive)
REMARK    1  A    between atoms: N3_3  and  C1_4 
REMARK    2  A    between atoms: C6_9  and  N4_10 
REMARK    3  A    between atoms: C8_12  and  C9_13 
REMARK    4  A    between atoms: C9_13  and  C10_14 
REMARK    5  A    between atoms: C10_14  and  C11_15 
REMARK    6  A    between atoms: C11_15  and  O1_16 
ROOT
HETATM    1  N1  LIG X 999       7.349  -1.325  -0.974  1.00  0.00     0.068 N 
HETATM    2  N2  LIG X 999       6.779  -0.572  -0.186  1.00  0.00    -0.162 NA
HETATM    3  N3  LIG X 999       6.211   0.185   0.602  1.00  0.00    -0.072 NA
ENDROOT
BRANCH   3   4
HETATM    4  C1  LIG X 999       4.827   0.539   0.457  1.00  0.00     0.104 A 
HETATM    5  C2  LIG X 999       4.489   1.885   0.622  1.00  0.00     0.035 A 
HETATM    6  C3  LIG X 999       3.179   2.319   0.436  1.00  0.00     0.003 A 
HETATM    7  C4  LIG X 999       2.183   1.415   0.076  1.00  0.00     0.015 A 
HETATM    8  C5  LIG X 999       2.479   0.047  -0.083  1.00  0.00     0.005 A 
HETATM    9  C6  LIG X 999       1.467  -0.887  -0.423  1.00  0.00     0.068 A 
HETATM   10  C17 LIG X 999       3.809  -0.408   0.157  1.00  0.00     0.008 A 
HETATM   11  C14 LIG X 999       1.765  -2.255  -0.436  1.00  0.00     0.032 A 
HETATM   12  C15 LIG X 999       3.049  -2.704  -0.143  1.00  0.00     0.003 A 
HETATM   13  C16 LIG X 999       4.064  -1.795   0.150  1.00  0.00     0.015 A 
BRANCH   9  14
HETATM   14  N4  LIG X 999       0.137  -0.467  -0.767  1.00  0.00    -0.249 N 
HETATM   15  C7  LIG X 999      -1.013  -0.933  -0.249  1.00  0.00     0.147 A 
HETATM   16  C8  LIG X 999      -2.028  -0.289  -0.928  1.00  0.00     0.074 A 
HETATM   17  N5  LIG X 999      -1.480   0.543  -1.838  1.00  0.00    -0.162 NA
HETATM   18  N6  LIG X 999      -0.169   0.400  -1.721  1.00  0.00    -0.213 N 
HETATM   19  H14 LIG X 999       0.528   0.901  -2.317  1.00  0.00     0.211 HD
BRANCH  16  20
HETATM   20  C9  LIG X 999      -3.496  -0.410  -0.667  1.00  0.00     0.074 C 
BRANCH  20  21
HETATM   21  C10 LIG X 999      -3.985   0.745   0.225  1.00  0.00    -0.014 A 
HETATM   22  C12 LIG X 999      -5.445   1.146   0.047  1.00  0.00     0.013 A 
HETATM   23  C13 LIG X 999      -4.336   2.043  -0.493  1.00  0.00     0.013 A 
BRANCH  21  24
HETATM   24  C11 LIG X 999      -3.427   0.887   1.653  1.00  0.00     0.173 C 
BRANCH  24  25
HETATM   25  O1  LIG X 999      -3.770  -0.234   2.421  1.00  0.00    -0.400 OA
HETATM   26  H9  LIG X 999      -3.090  -0.932   2.228  1.00  0.00     0.209 HD
ENDBRANCH  24  25
ENDBRANCH  21  24
ENDBRANCH  20  21
ENDBRANCH  16  20
ENDBRANCH   9  14
ENDBRANCH   3   4
TORSDOF 6
