REMARK  2 active torsions:
REMARK  status: ('A' for Active; 'I' for Inactive)
REMARK       I    between atoms: N3_3  and  C1_4 
REMARK    1  A    between atoms: C1_4  and  C2_6 
REMARK    2  A    between atoms: C11_15  and  N4_16 
ROOT
HETATM    1  N1  LIG X 999       0.683   1.698   4.378  1.00  0.00     0.068 N 
HETATM    2  N2  LIG X 999       1.669   1.049   4.033  1.00  0.00    -0.159 NA
HETATM    3  N3  LIG X 999       2.658   0.400   3.688  1.00  0.00    -0.028 NA
HETATM    4  C1  LIG X 999       2.680  -0.373   2.482  1.00  0.00     0.311 C 
HETATM    5  O1  LIG X 999       3.780  -0.843   2.087  1.00  0.00    -0.263 OA
ENDROOT
BRANCH   4   6
HETATM    6  C2  LIG X 999       1.452  -0.638   1.691  1.00  0.00     0.069 A 
HETATM    7  C3  LIG X 999       0.285  -1.046   2.352  1.00  0.00     0.020 A 
HETATM    8  C4  LIG X 999      -0.883  -1.304   1.642  1.00  0.00     0.013 A 
HETATM    9  C5  LIG X 999      -0.901  -1.199   0.247  1.00  0.00    -0.024 A 
HETATM   10  C6  LIG X 999      -2.075  -1.501  -0.462  1.00  0.00     0.012 A 
HETATM   11  C10 LIG X 999       0.274  -0.812  -0.451  1.00  0.00     0.007 A 
HETATM   12  C7  LIG X 999      -2.089  -1.448  -1.855  1.00  0.00     0.001 A 
HETATM   13  C8  LIG X 999      -0.930  -1.111  -2.553  1.00  0.00     0.001 A 
HETATM   14  C9  LIG X 999       0.245  -0.803  -1.863  1.00  0.00     0.015 A 
HETATM   15  C11 LIG X 999       1.448  -0.489   0.285  1.00  0.00     0.120 A 
BRANCH  15  16
HETATM   16  N4  LIG X 999       2.631   0.019  -0.352  1.00  0.00    -0.071 NA
HETATM   17  N5  LIG X 999       2.587   0.937  -1.172  1.00  0.00    -0.162 NA
HETATM   18  N6  LIG X 999       2.546   1.855  -1.990  1.00  0.00     0.068 N 
ENDBRANCH  15  16
ENDBRANCH   4   6
TORSDOF 2
