REMARK  1 active torsions:
REMARK  status: ('A' for Active; 'I' for Inactive)
REMARK       I    between atoms: N1_1  and  C1_2 
REMARK    1  A    between atoms: C1_2  and  C2_4 
ROOT
HETATM    1  C2  LIG X 999       0.991   1.263  -0.532  1.00  0.00     0.032 A 
HETATM    2  C3  LIG X 999       0.553   2.033  -1.624  1.00  0.00     0.018 A 
HETATM    3  C4  LIG X 999      -0.783   1.996  -2.033  1.00  0.00     0.013 A 
HETATM    4  C5  LIG X 999      -1.708   1.193  -1.354  1.00  0.00    -0.026 A 
HETATM    5  C6  LIG X 999      -3.052   1.150  -1.758  1.00  0.00     0.012 A 
HETATM    6  C7  LIG X 999      -3.966   0.347  -1.070  1.00  0.00     0.001 A 
HETATM    7  C8  LIG X 999      -3.547  -0.416   0.024  1.00  0.00     0.001 A 
HETATM    8  C9  LIG X 999      -2.212  -0.381   0.436  1.00  0.00     0.012 A 
HETATM    9  C10 LIG X 999      -1.284   0.422  -0.246  1.00  0.00    -0.025 A 
HETATM   10  C11 LIG X 999       0.059   0.465   0.158  1.00  0.00     0.029 A 
ENDROOT
BRANCH   1  11
HETATM   11  C1  LIG X 999       2.405   1.299  -0.086  1.00  0.00     0.249 C 
HETATM   12  N1  LIG X 999       3.460   1.675  -0.977  1.00  0.00    -0.366 N 
HETATM   13  H1  LIG X 999       4.439   1.750  -0.621  1.00  0.00     0.159 HD
HETATM   14  H2  LIG X 999       3.299   1.795  -2.000  1.00  0.00     0.159 HD
HETATM   15  O1  LIG X 999       2.695   0.980   1.098  1.00  0.00    -0.268 OA
ENDBRANCH   1  11
TORSDOF 1
