REMARK  4 active torsions:
REMARK  status: ('A' for Active; 'I' for Inactive)
REMARK    1  A    between atoms: C7_9  and  C8_10 
REMARK    2  A    between atoms: C8_10  and  O2_11 
REMARK    3  A    between atoms: O2_11  and  C9_12 
REMARK    4  A    between atoms: C11_14  and  N1_15 
ROOT
HETATM    1  N1  LIG X 999       2.961  -1.360   3.725  1.00  0.00    -0.233 NA
HETATM    2  C12 LIG X 999       3.686  -0.319   3.608  1.00  0.00     0.163 C 
HETATM    3  S1  LIG X 999       4.603   0.997   3.459  1.00  0.00    -0.055 SA
ENDROOT
BRANCH   1   4
HETATM    4  C11 LIG X 999       1.912  -1.725   2.812  1.00  0.00     0.074 A 
HETATM    5  C10 LIG X 999       1.615  -0.909   1.680  1.00  0.00     0.070 A 
HETATM    6  C9  LIG X 999       0.586  -1.255   0.772  1.00  0.00     0.078 A 
HETATM    7  C19 LIG X 999      -0.135  -2.423   1.015  1.00  0.00    -0.013 A 
HETATM    8  C18 LIG X 999       0.150  -3.198   2.095  1.00  0.00    -0.006 A 
HETATM    9  C20 LIG X 999      -1.261  -3.014   0.226  1.00  0.00     0.047 A 
HETATM   10  C13 LIG X 999       1.153  -2.911   3.027  1.00  0.00     0.026 A 
HETATM   11  C17 LIG X 999      -0.660  -4.289   2.159  1.00  0.00    -0.046 A 
HETATM   12  C14 LIG X 999       1.310  -3.840   4.098  1.00  0.00     0.047 A 
HETATM   13 CL2  LIG X 999       2.511  -3.663   5.374  1.00  0.00    -0.083 Cl
HETATM   14  C15 LIG X 999       0.468  -4.976   4.168  1.00  0.00     0.025 A 
HETATM   15  C16 LIG X 999      -0.523  -5.207   3.196  1.00  0.00     0.010 A 
HETATM   16  C21 LIG X 999      -1.623  -4.302   1.014  1.00  0.00     0.044 A 
BRANCH   6  17
HETATM   17  O2  LIG X 999       0.265  -0.479  -0.351  1.00  0.00    -0.344 OA
BRANCH  17  18
HETATM   18  C8  LIG X 999       0.922   0.734  -0.704  1.00  0.00     0.240 C 
BRANCH  18  19
HETATM   19  C7  LIG X 999       0.309   1.276  -1.951  1.00  0.00     0.078 A 
HETATM   20  O1  LIG X 999       0.821   1.106  -3.155  1.00  0.00    -0.310 OA
HETATM   21  C6  LIG X 999       0.013   1.686  -4.010  1.00  0.00     0.108 A 
HETATM   22  C5  LIG X 999       0.150   1.762  -5.394  1.00  0.00     0.068 A 
HETATM   23  C23 LIG X 999      -1.056   2.246  -3.359  1.00  0.00     0.008 A 
HETATM   24  C4  LIG X 999      -0.849   2.436  -6.119  1.00  0.00     0.027 A 
HETATM   25 CL1  LIG X 999       1.524   1.039  -6.212  1.00  0.00    -0.081 Cl
HETATM   26  C3  LIG X 999      -1.952   3.013  -5.451  1.00  0.00     0.009 A 
HETATM   27  C2  LIG X 999      -2.070   2.924  -4.046  1.00  0.00    -0.049 A 
HETATM   28  C1  LIG X 999      -3.235   3.528  -3.319  1.00  0.00     0.049 C 
HETATM   29  C22 LIG X 999      -0.884   1.988  -2.015  1.00  0.00     0.050 A 
ENDBRANCH  18  19
ENDBRANCH  17  18
ENDBRANCH   6  17
ENDBRANCH   1   4
TORSDOF 4
