REMARK  4 active torsions:
REMARK  status: ('A' for Active; 'I' for Inactive)
REMARK    1  A    between atoms: C1_2  and  C2_3 
REMARK       I    between atoms: C1_2  and  N2_10 
REMARK    2  A    between atoms: C2_3  and  C3_4 
REMARK    3  A    between atoms: N2_10  and  C8_11 
REMARK    4  A    between atoms: C13_16  and  N3_17 
ROOT
HETATM    1  N3  LIG X 999       2.224  -2.623  -0.853  1.00  0.00    -0.233 NA
HETATM    2  C14 LIG X 999       1.519  -3.313  -1.658  1.00  0.00     0.163 C 
HETATM    3  S1  LIG X 999       0.623  -4.182  -2.677  1.00  0.00    -0.055 SA
ENDROOT
BRANCH   1   4
HETATM    4  C13 LIG X 999       1.781  -1.358  -0.343  1.00  0.00     0.069 A 
HETATM    5  C12 LIG X 999       0.540  -1.190   0.329  1.00  0.00     0.005 A 
HETATM    6  C11 LIG X 999      -0.287  -2.286   0.649  1.00  0.00     0.015 A 
HETATM    7  C18 LIG X 999       0.125   0.117   0.709  1.00  0.00     0.005 A 
HETATM    8  C10 LIG X 999      -1.522  -2.088   1.268  1.00  0.00     0.003 A 
HETATM    9  C9  LIG X 999      -1.953  -0.801   1.582  1.00  0.00     0.032 A 
HETATM   10  C8  LIG X 999      -1.140   0.304   1.307  1.00  0.00     0.071 A 
HETATM   11  C17 LIG X 999       0.971   1.213   0.455  1.00  0.00     0.015 A 
HETATM   12  C16 LIG X 999       2.210   1.023  -0.151  1.00  0.00     0.003 A 
HETATM   13  C15 LIG X 999       2.614  -0.251  -0.542  1.00  0.00     0.032 A 
BRANCH  10  14
HETATM   14  N2  LIG X 999      -1.623   1.621   1.598  1.00  0.00    -0.213 NA
HETATM   15  C1  LIG X 999      -2.752   2.221   0.950  1.00  0.00     0.247 C 
HETATM   16  O1  LIG X 999      -3.203   3.308   1.400  1.00  0.00    -0.271 OA
BRANCH  15  17
HETATM   17  C2  LIG X 999      -3.399   1.607  -0.267  1.00  0.00     0.145 C 
BRANCH  17  18
HETATM   18  C3  LIG X 999      -2.388   1.306  -1.346  1.00  0.00    -0.032 A 
HETATM   19  C4  LIG X 999      -1.578   2.324  -1.873  1.00  0.00     0.010 A 
HETATM   20  C5  LIG X 999      -0.609   2.020  -2.831  1.00  0.00     0.020 A 
HETATM   21  C6  LIG X 999      -0.464   0.701  -3.264  1.00  0.00     0.116 A 
HETATM   22  N1  LIG X 999      -1.269  -0.273  -2.761  1.00  0.00    -0.273 NA
HETATM   23  C7  LIG X 999      -2.221  -0.003  -1.828  1.00  0.00     0.123 A 
ENDBRANCH  17  18
ENDBRANCH  15  17
ENDBRANCH  10  14
ENDBRANCH   1   4
TORSDOF 4
