REMARK  5 active torsions:
REMARK  status: ('A' for Active; 'I' for Inactive)
REMARK    1  A    between atoms: C7_9  and  C8_10 
REMARK    2  A    between atoms: C8_10  and  O2_11 
REMARK    3  A    between atoms: O2_11  and  C9_12 
REMARK    4  A    between atoms: C10_13  and  C11_14 
REMARK       I    between atoms: C11_14  and  N1_15 
REMARK    5  A    between atoms: C12_17  and  N2_18 
ROOT
HETATM    1  N2  LIG X 999      -5.239  -0.795  -0.912  1.00  0.00    -0.070 NA
HETATM    2  N3  LIG X 999      -6.052   0.130  -0.905  1.00  0.00    -0.162 NA
HETATM    3  N4  LIG X 999      -6.864   1.054  -0.899  1.00  0.00     0.068 N 
ENDROOT
BRANCH   1   4
HETATM    4  C12 LIG X 999      -4.093  -0.756  -0.058  1.00  0.00     0.124 A 
HETATM    5  C10 LIG X 999      -2.875  -0.166  -0.535  1.00  0.00     0.100 A 
HETATM    6  C9  LIG X 999      -1.740  -0.110   0.321  1.00  0.00     0.094 A 
HETATM    7  C19 LIG X 999      -1.827  -0.665   1.594  1.00  0.00    -0.012 A 
HETATM    8  C18 LIG X 999      -2.979  -1.241   2.017  1.00  0.00    -0.006 A 
HETATM    9  C20 LIG X 999      -0.779  -0.732   2.662  1.00  0.00     0.047 A 
HETATM   10  C13 LIG X 999      -4.141  -1.329   1.247  1.00  0.00     0.030 A 
HETATM   11  C17 LIG X 999      -2.863  -1.725   3.284  1.00  0.00    -0.046 A 
HETATM   12  C14 LIG X 999      -5.251  -1.995   1.848  1.00  0.00     0.047 A 
HETATM   13 CL2  LIG X 999      -6.787  -2.274   1.034  1.00  0.00    -0.083 Cl
HETATM   14  C15 LIG X 999      -5.135  -2.500   3.166  1.00  0.00     0.025 A 
HETATM   15  C16 LIG X 999      -3.939  -2.365   3.893  1.00  0.00     0.010 A 
HETATM   16  C21 LIG X 999      -1.494  -1.467   3.827  1.00  0.00     0.044 A 
BRANCH   5  17
HETATM   17  C11 LIG X 999      -2.770   0.356  -1.922  1.00  0.00     0.275 C 
HETATM   18  N1  LIG X 999      -1.548   0.232  -2.647  1.00  0.00    -0.263 NA
HETATM   19  H8  LIG X 999      -1.460   0.602  -3.619  1.00  0.00     0.190 HD
HETATM   20  O3  LIG X 999      -3.755   0.914  -2.474  1.00  0.00    -0.266 OA
ENDBRANCH   5  17
BRANCH   6  21
HETATM   21  O2  LIG X 999      -0.547   0.496  -0.076  1.00  0.00    -0.343 OA
BRANCH  21  22
HETATM   22  C8  LIG X 999      -0.385   1.908  -0.034  1.00  0.00     0.240 C 
BRANCH  22  23
HETATM   23  C7  LIG X 999       0.967   2.260  -0.555  1.00  0.00     0.078 A 
HETATM   24  O1  LIG X 999       1.204   2.599  -1.808  1.00  0.00    -0.310 OA
HETATM   25  C6  LIG X 999       2.494   2.806  -1.920  1.00  0.00     0.108 A 
HETATM   26  C5  LIG X 999       3.200   3.184  -3.060  1.00  0.00     0.068 A 
HETATM   27  C23 LIG X 999       3.122   2.595  -0.719  1.00  0.00     0.008 A 
HETATM   28  C4  LIG X 999       4.593   3.345  -2.949  1.00  0.00     0.027 A 
HETATM   29 CL1  LIG X 999       2.380   3.448  -4.589  1.00  0.00    -0.081 Cl
HETATM   30  C3  LIG X 999       5.243   3.126  -1.714  1.00  0.00     0.009 A 
HETATM   31  C2  LIG X 999       4.506   2.744  -0.571  1.00  0.00    -0.049 A 
HETATM   32  C1  LIG X 999       5.179   2.504   0.748  1.00  0.00     0.049 C 
HETATM   33  C22 LIG X 999       2.145   2.234   0.184  1.00  0.00     0.050 A 
ENDBRANCH  22  23
ENDBRANCH  21  22
ENDBRANCH   6  21
ENDBRANCH   1   4
TORSDOF 5
