REMARK  4 active torsions:
REMARK  status: ('A' for Active; 'I' for Inactive)
REMARK    1  A    between atoms: C7_9  and  C8_10 
REMARK    2  A    between atoms: C8_10  and  O2_11 
REMARK    3  A    between atoms: O2_11  and  C9_12 
REMARK    4  A    between atoms: C11_14  and  N1_15 
ROOT
HETATM    1  C9  LIG X 999      -1.242   1.188   0.919  1.00  0.00     0.078 A 
HETATM    2  C10 LIG X 999      -1.201  -0.078   1.554  1.00  0.00     0.067 A 
HETATM    3  C11 LIG X 999      -2.093  -1.117   1.185  1.00  0.00     0.041 A 
HETATM    4  C12 LIG X 999      -3.096  -0.866   0.202  1.00  0.00     0.023 A 
HETATM    5  C13 LIG X 999      -4.147  -1.742  -0.205  1.00  0.00     0.047 A 
HETATM    6 CL2  LIG X 999      -4.505  -3.277   0.580  1.00  0.00    -0.083 Cl
HETATM    7  C14 LIG X 999      -5.043  -1.335  -1.223  1.00  0.00     0.025 A 
HETATM    8  C15 LIG X 999      -4.936  -0.066  -1.820  1.00  0.00     0.010 A 
HETATM    9  C16 LIG X 999      -3.936   0.793  -1.377  1.00  0.00    -0.046 A 
HETATM   10  C17 LIG X 999      -3.070   0.395  -0.405  1.00  0.00    -0.007 A 
HETATM   11  C18 LIG X 999      -2.196   1.385  -0.077  1.00  0.00    -0.013 A 
HETATM   12  C19 LIG X 999      -2.452   2.608  -0.902  1.00  0.00     0.047 A 
HETATM   13  C20 LIG X 999      -3.649   2.197  -1.801  1.00  0.00     0.044 A 
ENDROOT
BRANCH   1  14
HETATM   14  O2  LIG X 999      -0.364   2.236   1.239  1.00  0.00    -0.344 OA
BRANCH  14  15
HETATM   15  C8  LIG X 999       0.723   2.143   2.159  1.00  0.00     0.240 C 
BRANCH  15  16
HETATM   16  C7  LIG X 999       1.794   1.254   1.612  1.00  0.00     0.078 A 
HETATM   17  O1  LIG X 999       2.203   1.286   0.357  1.00  0.00    -0.310 OA
HETATM   18  C6  LIG X 999       3.143   0.382   0.228  1.00  0.00     0.108 A 
HETATM   19  C5  LIG X 999       3.858   0.056  -0.923  1.00  0.00     0.068 A 
HETATM   20  C22 LIG X 999       3.366  -0.256   1.421  1.00  0.00     0.008 A 
HETATM   21  C4  LIG X 999       4.828  -0.959  -0.829  1.00  0.00     0.027 A 
HETATM   22 CL1  LIG X 999       3.558   0.880  -2.442  1.00  0.00    -0.081 Cl
HETATM   23  C3  LIG X 999       5.059  -1.618   0.398  1.00  0.00     0.009 A 
HETATM   24  C2  LIG X 999       4.322  -1.269   1.552  1.00  0.00    -0.049 A 
HETATM   25  C1  LIG X 999       4.550  -1.961   2.864  1.00  0.00     0.049 C 
HETATM   26  C21 LIG X 999       2.500   0.300   2.338  1.00  0.00     0.050 A 
ENDBRANCH  15  16
ENDBRANCH  14  15
ENDBRANCH   1  14
BRANCH   3  27
HETATM   27  N1  LIG X 999      -1.889  -2.411   1.761  1.00  0.00    -0.398 N 
HETATM   28  H9  LIG X 999      -1.370  -2.507   2.662  1.00  0.00     0.156 HD
HETATM   29  H10 LIG X 999      -1.980  -3.272   1.180  1.00  0.00     0.156 HD
ENDBRANCH   3  27
TORSDOF 4
