REMARK  1 active torsions:
REMARK  status: ('A' for Active; 'I' for Inactive)
REMARK    1  A    between atoms: N1_3  and  C2_4 
ROOT
HETATM    1  O1  LIG X 999      -0.068  -3.763  -3.556  1.00  0.00    -0.260 OA
HETATM    2  C1  LIG X 999      -0.118  -3.040  -2.553  1.00  0.00     0.337 C 
HETATM    3  N1  LIG X 999      -0.171  -2.296  -1.520  1.00  0.00    -0.205 NA
ENDROOT
BRANCH   3   4
HETATM    4  C2  LIG X 999      -0.345  -0.867  -1.560  1.00  0.00     0.072 A 
HETATM    5  C3  LIG X 999      -0.472  -0.180  -2.784  1.00  0.00     0.032 A 
HETATM    6  C4  LIG X 999      -0.640   1.205  -2.810  1.00  0.00     0.003 A 
HETATM    7  C5  LIG X 999      -0.685   1.931  -1.621  1.00  0.00     0.012 A 
HETATM    8  C6  LIG X 999      -0.561   1.276  -0.389  1.00  0.00    -0.024 A 
HETATM    9  C7  LIG X 999      -0.606   2.009   0.807  1.00  0.00     0.012 A 
HETATM   10  C11 LIG X 999      -0.389  -0.133  -0.351  1.00  0.00     0.003 A 
HETATM   11  C8  LIG X 999      -0.483   1.357   2.036  1.00  0.00     0.001 A 
HETATM   12  C9  LIG X 999      -0.314  -0.027   2.082  1.00  0.00     0.001 A 
HETATM   13  C10 LIG X 999      -0.267  -0.771   0.900  1.00  0.00     0.014 A 
ENDBRANCH   3   4
TORSDOF 1
