REMARK  4 active torsions:
REMARK  status: ('A' for Active; 'I' for Inactive)
REMARK    1  A    between atoms: C2_2  and  C4_4 
REMARK    2  A    between atoms: C2_2  and  C17_22 
REMARK    3  A    between atoms: C5_5  and  C6_6 
REMARK    4  A    between atoms: C8_8  and  N1_9 
ROOT
HETATM    1  N1  LIG X 999       2.685   4.188   1.153  1.00  0.00    -0.070 NA
HETATM    2  N2  LIG X 999       3.237   4.821   2.053  1.00  0.00    -0.162 NA
HETATM    3  N3  LIG X 999       3.784   5.468   2.946  1.00  0.00     0.068 N 
ENDROOT
BRANCH   1   4
HETATM    4  C8  LIG X 999       2.261   2.824   1.294  1.00  0.00     0.122 A 
HETATM    5  C7  LIG X 999       1.351   2.295   0.345  1.00  0.00     0.058 A 
HETATM    6  C6  LIG X 999       0.871   0.962   0.441  1.00  0.00     0.031 A 
HETATM    7  C15 LIG X 999       1.315   0.135   1.498  1.00  0.00    -0.004 A 
HETATM    8  C10 LIG X 999       2.209   0.689   2.400  1.00  0.00     0.021 A 
HETATM    9  C14 LIG X 999       0.947  -1.215   1.708  1.00  0.00     0.014 A 
HETATM   10  C9  LIG X 999       2.689   1.971   2.331  1.00  0.00     0.079 A 
HETATM   11  C11 LIG X 999       2.758   0.003   3.441  1.00  0.00     0.045 A 
HETATM   12  N4  LIG X 999       3.642   2.193   3.379  1.00  0.00    -0.320 N 
HETATM   13  C16 LIG X 999       3.677   0.940   4.073  1.00  0.00     0.257 A 
HETATM   14  H11 LIG X 999       4.296   2.992   3.515  1.00  0.00     0.169 HD
HETATM   15  O1  LIG X 999       4.422   0.697   5.058  1.00  0.00    -0.267 OA
HETATM   16  C12 LIG X 999       2.427  -1.332   3.672  1.00  0.00     0.018 A 
HETATM   17  C13 LIG X 999       1.502  -1.940   2.794  1.00  0.00     0.002 A 
BRANCH   6  18
HETATM   18  C5  LIG X 999      -0.057   0.474  -0.548  1.00  0.00    -0.065 C 
HETATM   19  C4  LIG X 999      -0.834   0.061  -1.372  1.00  0.00    -0.084 C 
BRANCH  19  20
HETATM   20  C2  LIG X 999      -1.785  -0.450  -2.376  1.00  0.00     0.081 C 
HETATM   21  C1  LIG X 999      -1.306  -0.010  -3.771  1.00  0.00     0.037 C 
HETATM   22  C3  LIG X 999      -1.823  -1.984  -2.294  1.00  0.00     0.037 C 
BRANCH  20  23
HETATM   23  C17 LIG X 999      -3.164   0.098  -2.087  1.00  0.00     0.180 A 
HETATM   24  N5  LIG X 999      -4.108   0.321  -3.022  1.00  0.00    -0.143 NA
HETATM   25  N6  LIG X 999      -5.176   0.702  -2.340  1.00  0.00     0.019 NA
HETATM   26  N7  LIG X 999      -4.906   0.696  -1.045  1.00  0.00     0.019 NA
HETATM   27  N8  LIG X 999      -3.656   0.311  -0.851  1.00  0.00    -0.143 NA
ENDBRANCH  20  23
ENDBRANCH  19  20
ENDBRANCH   6  18
ENDBRANCH   1   4
TORSDOF 4
