REMARK  3 active torsions:
REMARK  status: ('A' for Active; 'I' for Inactive)
REMARK    1  A    between atoms: S1_2  and  C1_4 
REMARK    2  A    between atoms: S1_2  and  C10_15 
REMARK    3  A    between atoms: C1_4  and  C2_5 
ROOT
HETATM    1  O1  LIG X 999      -1.151   1.886  -2.956  1.00  0.00    -0.222 OA
HETATM    2  S1  LIG X 999      -0.747   2.547  -1.667  1.00  0.00     0.180 S 
HETATM    3  O2  LIG X 999      -1.318   3.937  -1.642  1.00  0.00    -0.222 OA
ENDROOT
BRANCH   2   4
HETATM    4  C1  LIG X 999       1.034   2.632  -1.574  1.00  0.00     0.192 C 
BRANCH   4   5
HETATM    5  C2  LIG X 999       1.600   1.280  -1.280  1.00  0.00    -0.002 A 
HETATM    6  C3  LIG X 999       1.728   0.241  -2.201  1.00  0.00     0.028 A 
HETATM    7  C4  LIG X 999       2.168  -0.945  -1.605  1.00  0.00    -0.016 A 
HETATM    8  C5  LIG X 999       2.384  -2.163  -2.254  1.00  0.00     0.036 A 
HETATM    9  C9  LIG X 999       2.373  -0.836  -0.237  1.00  0.00     0.015 A 
HETATM   10  C6  LIG X 999       2.815  -3.267  -1.496  1.00  0.00     0.035 A 
HETATM   11 CL1  LIG X 999       3.095  -4.809  -2.284  1.00  0.00    -0.084 Cl
HETATM   12  C7  LIG X 999       3.020  -3.142  -0.107  1.00  0.00     0.025 A 
HETATM   13  C8  LIG X 999       2.796  -1.914   0.535  1.00  0.00     0.021 A 
HETATM   14  S2  LIG X 999       2.011   0.724   0.266  1.00  0.00    -0.093 SA
ENDBRANCH   4   5
ENDBRANCH   2   4
BRANCH   2  15
HETATM   15  C10 LIG X 999      -1.373   1.627  -0.302  1.00  0.00     0.060 A 
HETATM   16  C11 LIG X 999      -1.626   0.254  -0.435  1.00  0.00     0.024 A 
HETATM   17  C12 LIG X 999      -2.064  -0.493   0.661  1.00  0.00     0.014 A 
HETATM   18  C13 LIG X 999      -2.250   0.124   1.906  1.00  0.00    -0.026 A 
HETATM   19  C14 LIG X 999      -2.685  -0.617   3.016  1.00  0.00     0.012 A 
HETATM   20  C18 LIG X 999      -1.991   1.510   2.047  1.00  0.00    -0.025 A 
HETATM   21  C15 LIG X 999      -2.861   0.009   4.253  1.00  0.00     0.001 A 
HETATM   22  C16 LIG X 999      -2.604   1.376   4.392  1.00  0.00     0.001 A 
HETATM   23  C17 LIG X 999      -2.170   2.126   3.295  1.00  0.00     0.012 A 
HETATM   24  C19 LIG X 999      -1.551   2.251   0.940  1.00  0.00     0.035 A 
ENDBRANCH   2  15
TORSDOF 3
