REMARK  4 active torsions:
REMARK  status: ('A' for Active; 'I' for Inactive)
REMARK    1  A    between atoms: C2_2  and  C3_3 
REMARK    2  A    between atoms: C3_3  and  C6_6 
REMARK       I    between atoms: C6_6  and  N1_8 
REMARK    3  A    between atoms: N1_8  and  C7_9 
REMARK    4  A    between atoms: C12_14  and  N2_15 
ROOT
HETATM    1  N2  LIG X 999       5.267   1.041  -0.782  1.00  0.00    -0.233 NA
HETATM    2  C13 LIG X 999       6.288   1.429  -0.127  1.00  0.00     0.163 C 
HETATM    3  S1  LIG X 999       7.579   1.921   0.703  1.00  0.00    -0.055 SA
ENDROOT
BRANCH   1   4
HETATM    4  C12 LIG X 999       3.990   0.736  -0.191  1.00  0.00     0.069 A 
HETATM    5  C11 LIG X 999       2.920   0.310  -1.013  1.00  0.00     0.005 A 
HETATM    6  C10 LIG X 999       3.097   0.151  -2.401  1.00  0.00     0.015 A 
HETATM    7  C17 LIG X 999       1.648   0.023  -0.437  1.00  0.00     0.005 A 
HETATM    8  C9  LIG X 999       2.049  -0.296  -3.203  1.00  0.00     0.003 A 
HETATM    9  C8  LIG X 999       0.804  -0.571  -2.643  1.00  0.00     0.032 A 
HETATM   10  C7  LIG X 999       0.580  -0.389  -1.275  1.00  0.00     0.071 A 
HETATM   11  C16 LIG X 999       1.495   0.122   0.959  1.00  0.00     0.015 A 
HETATM   12  C15 LIG X 999       2.554   0.536   1.763  1.00  0.00     0.003 A 
HETATM   13  C14 LIG X 999       3.788   0.849   1.198  1.00  0.00     0.032 A 
BRANCH  10  14
HETATM   14  N1  LIG X 999      -0.738  -0.654  -0.774  1.00  0.00    -0.213 NA
HETATM   15  C6  LIG X 999      -1.557   0.313  -0.102  1.00  0.00     0.251 C 
HETATM   16  O1  LIG X 999      -1.121   1.485   0.072  1.00  0.00    -0.270 OA
BRANCH  15  17
HETATM   17  C3  LIG X 999      -2.927  -0.078   0.434  1.00  0.00     0.035 C 
HETATM   18  C4  LIG X 999      -3.858   1.157   0.408  1.00  0.00     0.025 C 
HETATM   19  C5  LIG X 999      -3.568  -1.164  -0.461  1.00  0.00     0.025 C 
BRANCH  17  20
HETATM   20  C2  LIG X 999      -2.804  -0.564   1.907  1.00  0.00     0.014 C 
HETATM   21  C1  LIG X 999      -2.054  -1.887   2.093  1.00  0.00     0.006 C 
ENDBRANCH  17  20
ENDBRANCH  15  17
ENDBRANCH  10  14
ENDBRANCH   1   4
TORSDOF 4
