REMARK  5 active torsions:
REMARK  status: ('A' for Active; 'I' for Inactive)
REMARK    1  A    between atoms: C3_3  and  S1_4 
REMARK    2  A    between atoms: S1_4  and  C4_7 
REMARK    3  A    between atoms: C13_16  and  C14_17 
REMARK    4  A    between atoms: C14_17  and  C15_19 
REMARK    5  A    between atoms: C15_19  and  N1_20 
ROOT
HETATM    1  C1  LIG X 999      -1.933  -3.458  -0.681  1.00  0.00     0.013 C 
HETATM    2  C2  LIG X 999      -1.127  -3.079  -1.493  1.00  0.00    -0.102 C 
HETATM    3  C3  LIG X 999      -0.146  -2.614  -2.477  1.00  0.00     0.238 C 
ENDROOT
BRANCH   3   4
HETATM    4  S1  LIG X 999       1.242  -1.855  -1.652  1.00  0.00     0.186 S 
HETATM    5  O1  LIG X 999       2.265  -1.437  -2.670  1.00  0.00    -0.222 OA
HETATM    6  O2  LIG X 999       1.882  -2.866  -0.742  1.00  0.00    -0.222 OA
BRANCH   4   7
HETATM    7  C4  LIG X 999       0.704  -0.465  -0.691  1.00  0.00     0.074 A 
HETATM    8  C5  LIG X 999       0.265  -0.708   0.621  1.00  0.00     0.036 A 
HETATM    9  C6  LIG X 999      -0.142   0.345   1.450  1.00  0.00    -0.025 A 
HETATM   10  C7  LIG X 999      -0.580   0.096   2.760  1.00  0.00     0.012 A 
HETATM   11  C11 LIG X 999      -0.109   1.671   0.964  1.00  0.00    -0.025 A 
HETATM   12  C8  LIG X 999      -0.981   1.155   3.580  1.00  0.00     0.001 A 
HETATM   13  C9  LIG X 999      -0.947   2.466   3.099  1.00  0.00     0.001 A 
HETATM   14  C10 LIG X 999      -0.513   2.727   1.797  1.00  0.00     0.012 A 
HETATM   15  C12 LIG X 999       0.323   1.919  -0.345  1.00  0.00     0.029 A 
HETATM   16  C13 LIG X 999       0.716   0.864  -1.183  1.00  0.00     0.034 A 
BRANCH  16  17
HETATM   17  C14 LIG X 999       1.126   1.204  -2.559  1.00  0.00     0.183 C 
HETATM   18  O3  LIG X 999       2.242   1.758  -2.743  1.00  0.00    -0.290 OA
BRANCH  17  19
HETATM   19  C15 LIG X 999       0.250   0.914  -3.743  1.00  0.00     0.272 C 
BRANCH  19  20
HETATM   20  N1  LIG X 999      -1.154   0.901  -3.355  1.00  0.00    -0.108 NA
HETATM   21  N2  LIG X 999      -2.031   0.661  -4.185  1.00  0.00    -0.167 NA
HETATM   22  N3  LIG X 999      -2.908   0.422  -5.013  1.00  0.00     0.068 N 
ENDBRANCH  19  20
ENDBRANCH  17  19
ENDBRANCH  16  17
ENDBRANCH   4   7
ENDBRANCH   3   4
TORSDOF 5
