REMARK  4 active torsions:
REMARK  status: ('A' for Active; 'I' for Inactive)
REMARK    1  A    between atoms: N3_3  and  C1_4 
REMARK    2  A    between atoms: C12_19  and  N6_20 
REMARK    3  A    between atoms: C14_22  and  N7_23 
REMARK    4  A    between atoms: C16_27  and  N10_28 
ROOT
HETATM    1  N1  LIG X 999      -4.298  -1.881  -1.268  1.00  0.00     0.068 N 
HETATM    2  N2  LIG X 999      -3.350  -2.647  -1.436  1.00  0.00    -0.162 NA
HETATM    3  N3  LIG X 999      -2.402  -3.416  -1.605  1.00  0.00    -0.070 NA
ENDROOT
BRANCH   3   4
HETATM    4  C1  LIG X 999      -1.137  -2.966  -2.109  1.00  0.00     0.120 A 
HETATM    5  C2  LIG X 999      -0.524  -3.744  -3.099  1.00  0.00     0.037 A 
HETATM    6  C3  LIG X 999       0.663  -3.330  -3.700  1.00  0.00     0.004 A 
HETATM    7  C4  LIG X 999       1.267  -2.135  -3.315  1.00  0.00     0.019 A 
HETATM    8  C5  LIG X 999       0.703  -1.350  -2.293  1.00  0.00     0.062 A 
HETATM    9  C6  LIG X 999       1.319  -0.154  -1.863  1.00  0.00     0.266 A 
HETATM   10  C8  LIG X 999      -0.501  -1.777  -1.658  1.00  0.00     0.081 A 
HETATM   11  O1  LIG X 999       2.383   0.237  -2.409  1.00  0.00    -0.267 OA
HETATM   12  N4  LIG X 999       0.746   0.547  -0.841  1.00  0.00    -0.259 N 
HETATM   13  C7  LIG X 999      -0.371   0.086  -0.219  1.00  0.00     0.127 A 
HETATM   14  C17 LIG X 999       1.081   1.708  -0.195  1.00  0.00     0.088 A 
HETATM   15  N5  LIG X 999      -0.991  -1.058  -0.601  1.00  0.00    -0.338 N 
HETATM   16  C9  LIG X 999      -0.747   0.928   0.811  1.00  0.00     0.024 A 
HETATM   17  H4  LIG X 999      -1.813  -1.384  -0.049  1.00  0.00     0.167 HD
HETATM   18  C10 LIG X 999      -1.795   0.921   1.723  1.00  0.00     0.042 A 
HETATM   19  C18 LIG X 999       0.172   1.925   0.807  1.00  0.00     0.023 A 
HETATM   20  C11 LIG X 999      -1.899   2.011   2.615  1.00  0.00     0.062 A 
HETATM   21 CL1  LIG X 999      -3.279   2.044   3.706  1.00  0.00    -0.082 Cl
HETATM   22  C12 LIG X 999      -0.947   3.082   2.581  1.00  0.00     0.061 A 
HETATM   23  C13 LIG X 999       0.165   3.001   1.685  1.00  0.00     0.037 A 
HETATM   24  C14 LIG X 999       1.265   3.901   1.570  1.00  0.00     0.109 A 
HETATM   25  C15 LIG X 999       2.190   3.740   0.507  1.00  0.00     0.072 A 
HETATM   26  C16 LIG X 999       2.115   2.646  -0.399  1.00  0.00     0.123 A 
BRANCH  22  27
HETATM   27  N6  LIG X 999      -1.202   4.271   3.342  1.00  0.00    -0.397 N 
HETATM   28  H6  LIG X 999      -1.824   4.259   4.180  1.00  0.00     0.156 HD
HETATM   29  H7  LIG X 999      -0.900   5.205   2.991  1.00  0.00     0.156 HD
ENDBRANCH  22  27
BRANCH  24  30
HETATM   30  N7  LIG X 999       1.557   4.903   2.549  1.00  0.00    -0.072 NA
HETATM   31  N8  LIG X 999       1.572   4.640   3.752  1.00  0.00    -0.162 NA
HETATM   32  N9  LIG X 999       1.589   4.377   4.954  1.00  0.00     0.068 N 
ENDBRANCH  24  30
BRANCH  26  33
HETATM   33  N10 LIG X 999       3.057   2.513  -1.469  1.00  0.00    -0.070 NA
HETATM   34  N11 LIG X 999       3.960   3.328  -1.662  1.00  0.00    -0.162 NA
HETATM   35  N12 LIG X 999       4.862   4.140  -1.857  1.00  0.00     0.068 N 
ENDBRANCH  26  33
ENDBRANCH   3   4
TORSDOF 4
