REMARK  4 active torsions:
REMARK  status: ('A' for Active; 'I' for Inactive)
REMARK    1  A    between atoms: C3_3  and  S1_4 
REMARK    2  A    between atoms: S1_4  and  C4_7 
REMARK    3  A    between atoms: C8_11  and  N1_12 
REMARK    4  A    between atoms: C13_17  and  N2_18 
ROOT
HETATM    1  C1  LIG X 999       3.720  -1.433  -4.542  1.00  0.00     0.013 C 
HETATM    2  C2  LIG X 999       2.813  -1.346  -3.752  1.00  0.00    -0.102 C 
HETATM    3  C3  LIG X 999       1.710  -1.242  -2.793  1.00  0.00     0.238 C 
ENDROOT
BRANCH   3   4
HETATM    4  S1  LIG X 999       2.337  -0.797  -1.185  1.00  0.00     0.188 S 
HETATM    5  O1  LIG X 999       3.311  -1.846  -0.725  1.00  0.00    -0.222 OA
HETATM    6  O2  LIG X 999       3.055   0.522  -1.258  1.00  0.00    -0.222 OA
BRANCH   4   7
HETATM    7  C4  LIG X 999       0.989  -0.680  -0.045  1.00  0.00     0.089 A 
HETATM    8  C5  LIG X 999       0.767  -1.727   0.853  1.00  0.00     0.027 A 
HETATM    9  C6  LIG X 999      -0.301  -1.689   1.745  1.00  0.00     0.016 A 
HETATM   10  C7  LIG X 999      -1.177  -0.587   1.777  1.00  0.00     0.003 A 
HETATM   11  C8  LIG X 999      -2.262  -0.520   2.695  1.00  0.00     0.036 A 
HETATM   12  C12 LIG X 999      -0.940   0.502   0.887  1.00  0.00     0.007 A 
HETATM   13  C9  LIG X 999      -3.039   0.644   2.759  1.00  0.00     0.030 A 
HETATM   14  C10 LIG X 999      -2.774   1.724   1.924  1.00  0.00     0.003 A 
HETATM   15  C11 LIG X 999      -1.739   1.658   0.996  1.00  0.00     0.015 A 
HETATM   16  C13 LIG X 999       0.117   0.425  -0.061  1.00  0.00     0.091 A 
BRANCH  11  17
HETATM   17  N1  LIG X 999      -2.610  -1.611   3.562  1.00  0.00    -0.398 N 
HETATM   18  H6  LIG X 999      -2.287  -2.588   3.401  1.00  0.00     0.156 HD
HETATM   19  H7  LIG X 999      -3.318  -1.476   4.317  1.00  0.00     0.156 HD
ENDBRANCH  11  17
BRANCH  16  20
HETATM   20  N2  LIG X 999       0.329   1.453  -1.041  1.00  0.00    -0.232 NA
HETATM   21  C14 LIG X 999      -0.565   1.776  -1.887  1.00  0.00     0.163 C 
HETATM   22  S2  LIG X 999      -1.698   2.183  -2.958  1.00  0.00    -0.055 SA
ENDBRANCH  16  20
ENDBRANCH   4   7
ENDBRANCH   3   4
TORSDOF 4
