REMARK  4 active torsions:
REMARK  status: ('A' for Active; 'I' for Inactive)
REMARK    1  A    between atoms: C3_3  and  S1_4 
REMARK    2  A    between atoms: S1_4  and  C4_7 
REMARK    3  A    between atoms: C10_13  and  C11_14 
REMARK    4  A    between atoms: C12_15  and  C13_16 
ROOT
HETATM    1  C1  LIG X 999       3.190   2.750   6.031  1.00  0.00     0.013 C 
HETATM    2  C2  LIG X 999       2.620   2.617   4.977  1.00  0.00    -0.102 C 
HETATM    3  C3  LIG X 999       1.929   2.455   3.696  1.00  0.00     0.238 C 
ENDROOT
BRANCH   3   4
HETATM    4  S1  LIG X 999       0.643   1.232   3.844  1.00  0.00     0.185 S 
HETATM    5  O1  LIG X 999       1.237  -0.087   4.254  1.00  0.00    -0.222 OA
HETATM    6  O2  LIG X 999      -0.350   1.660   4.889  1.00  0.00    -0.222 OA
BRANCH   4   7
HETATM    7  C4  LIG X 999      -0.167   1.057   2.290  1.00  0.00     0.060 A 
HETATM    8  C5  LIG X 999      -1.299   1.829   1.996  1.00  0.00     0.024 A 
HETATM    9  C6  LIG X 999      -1.937   1.706   0.759  1.00  0.00     0.014 A 
HETATM   10  C7  LIG X 999      -1.445   0.811  -0.202  1.00  0.00    -0.026 A 
HETATM   11  C8  LIG X 999      -2.077   0.679  -1.448  1.00  0.00     0.014 A 
HETATM   12  C16 LIG X 999      -0.296   0.034   0.087  1.00  0.00    -0.023 A 
HETATM   13  C9  LIG X 999      -1.576  -0.214  -2.399  1.00  0.00     0.021 A 
HETATM   14  C10 LIG X 999      -0.440  -0.982  -2.116  1.00  0.00     0.019 A 
HETATM   15  C15 LIG X 999       0.199  -0.859  -0.876  1.00  0.00     0.032 A 
HETATM   16  C17 LIG X 999       0.336   0.166   1.333  1.00  0.00     0.035 A 
BRANCH  14  17
HETATM   17  C11 LIG X 999       0.071  -1.899  -3.101  1.00  0.00    -0.058 C 
HETATM   18  C12 LIG X 999       0.500  -2.667  -3.925  1.00  0.00    -0.007 C 
BRANCH  18  19
HETATM   19  C13 LIG X 999       1.012  -3.581  -4.907  1.00  0.00     0.305 C 
HETATM   20  O3  LIG X 999       0.219  -4.294  -5.576  1.00  0.00    -0.266 OA
HETATM   21  C14 LIG X 999       2.427  -3.683  -5.125  1.00  0.00     0.152 C 
HETATM   22  N1  LIG X 999       3.568  -3.764  -5.301  1.00  0.00    -0.187 NA
ENDBRANCH  18  19
ENDBRANCH  14  17
ENDBRANCH   4   7
ENDBRANCH   3   4
TORSDOF 4
