REMARK  3 active torsions:
REMARK  status: ('A' for Active; 'I' for Inactive)
REMARK    1  A    between atoms: N3_3  and  C1_4 
REMARK    2  A    between atoms: C14_22  and  N6_23 
REMARK    3  A    between atoms: C17_27  and  N7_28 
ROOT
HETATM    1  N1  LIG X 999       3.276   1.218   3.627  1.00  0.00     0.068 N 
HETATM    2  N2  LIG X 999       3.972   1.317   2.617  1.00  0.00    -0.162 NA
HETATM    3  N3  LIG X 999       4.676   1.419   1.611  1.00  0.00    -0.070 NA
ENDROOT
BRANCH   3   4
HETATM    4  C1  LIG X 999       4.202   1.173   0.275  1.00  0.00     0.122 A 
HETATM    5  C2  LIG X 999       5.119   1.329  -0.772  1.00  0.00     0.037 A 
HETATM    6  C3  LIG X 999       4.742   1.109  -2.096  1.00  0.00     0.004 A 
HETATM    7  C4  LIG X 999       3.437   0.728  -2.403  1.00  0.00     0.020 A 
HETATM    8  C5  LIG X 999       2.489   0.560  -1.379  1.00  0.00     0.064 A 
HETATM    9  C6  LIG X 999       1.158   0.174  -1.659  1.00  0.00     0.266 A 
HETATM   10  C8  LIG X 999       2.871   0.784  -0.025  1.00  0.00     0.106 A 
HETATM   11  O1  LIG X 999       0.798  -0.029  -2.848  1.00  0.00    -0.267 OA
HETATM   12  N4  LIG X 999       0.285   0.029  -0.617  1.00  0.00    -0.258 N 
HETATM   13  C7  LIG X 999       0.686   0.252   0.662  1.00  0.00     0.149 A 
HETATM   14  C18 LIG X 999      -1.037  -0.323  -0.533  1.00  0.00     0.088 A 
HETATM   15  N5  LIG X 999       1.951   0.622   0.966  1.00  0.00    -0.226 NA
HETATM   16  C9  LIG X 999      -0.346   0.050   1.552  1.00  0.00     0.026 A 
HETATM   17  C10 LIG X 999      -0.451   0.143   2.932  1.00  0.00     0.042 A 
HETATM   18  C19 LIG X 999      -1.408  -0.306   0.786  1.00  0.00     0.022 A 
HETATM   19  C11 LIG X 999      -1.704  -0.145   3.515  1.00  0.00     0.057 A 
HETATM   20 CL1  LIG X 999      -1.845  -0.029   5.265  1.00  0.00    -0.082 Cl
HETATM   21  C12 LIG X 999      -2.822  -0.521   2.705  1.00  0.00     0.069 A 
HETATM   22 CL2  LIG X 999      -4.356  -0.867   3.509  1.00  0.00    -0.082 Cl
HETATM   23  C13 LIG X 999      -2.668  -0.605   1.285  1.00  0.00     0.030 A 
HETATM   24  C14 LIG X 999      -3.657  -0.958   0.326  1.00  0.00     0.073 A 
HETATM   25  C16 LIG X 999      -3.303  -0.985  -1.059  1.00  0.00     0.069 A 
HETATM   26  C17 LIG X 999      -1.992  -0.668  -1.510  1.00  0.00     0.123 A 
BRANCH  24  27
HETATM   27  N6  LIG X 999      -4.992  -1.284   0.747  1.00  0.00    -0.233 NA
HETATM   28  C15 LIG X 999      -5.936  -1.610  -0.042  1.00  0.00     0.163 C 
HETATM   29  S1  LIG X 999      -7.132  -2.023  -1.040  1.00  0.00    -0.055 SA
ENDBRANCH  24  27
BRANCH  26  30
HETATM   30  N7  LIG X 999      -1.666  -0.703  -2.904  1.00  0.00    -0.070 NA
HETATM   31  N8  LIG X 999      -2.488  -1.004  -3.771  1.00  0.00    -0.162 NA
HETATM   32  N9  LIG X 999      -3.308  -1.303  -4.637  1.00  0.00     0.068 N 
ENDBRANCH  26  30
ENDBRANCH   3   4
TORSDOF 3
