REMARK  4 active torsions:
REMARK  status: ('A' for Active; 'I' for Inactive)
REMARK    1  A    between atoms: N3_3  and  C1_4 
REMARK    2  A    between atoms: C12_19  and  N6_20 
REMARK    3  A    between atoms: C14_24  and  N9_25 
REMARK    4  A    between atoms: C16_29  and  N12_30 
ROOT
HETATM    1  N1  LIG X 999      -0.383  -2.030   4.770  1.00  0.00     0.068 N 
HETATM    2  N2  LIG X 999       0.754  -2.277   4.371  1.00  0.00    -0.162 NA
HETATM    3  N3  LIG X 999       1.894  -2.526   3.974  1.00  0.00    -0.070 NA
ENDROOT
BRANCH   3   4
HETATM    4  C1  LIG X 999       2.630  -1.613   3.150  1.00  0.00     0.120 A 
HETATM    5  C2  LIG X 999       3.973  -1.387   3.477  1.00  0.00     0.037 A 
HETATM    6  C3  LIG X 999       4.731  -0.450   2.779  1.00  0.00     0.004 A 
HETATM    7  C4  LIG X 999       4.165   0.273   1.732  1.00  0.00     0.019 A 
HETATM    8  C5  LIG X 999       2.833   0.041   1.347  1.00  0.00     0.062 A 
HETATM    9  C6  LIG X 999       2.252   0.738   0.264  1.00  0.00     0.266 A 
HETATM   10  C8  LIG X 999       2.055  -0.931   2.042  1.00  0.00     0.081 A 
HETATM   11  O1  LIG X 999       2.920   1.603  -0.359  1.00  0.00    -0.267 OA
HETATM   12  N4  LIG X 999       0.967   0.442  -0.093  1.00  0.00    -0.259 N 
HETATM   13  C7  LIG X 999       0.267  -0.524   0.561  1.00  0.00     0.127 A 
HETATM   14  C17 LIG X 999       0.131   0.908  -1.074  1.00  0.00     0.088 A 
HETATM   15  N5  LIG X 999       0.790  -1.217   1.603  1.00  0.00    -0.338 N 
HETATM   16  C9  LIG X 999      -0.991  -0.682   0.009  1.00  0.00     0.024 A 
HETATM   17  H4  LIG X 999       0.223  -1.982   2.023  1.00  0.00     0.167 HD
HETATM   18  C10 LIG X 999      -2.062  -1.522   0.285  1.00  0.00     0.042 A 
HETATM   19  C18 LIG X 999      -1.050   0.217  -1.002  1.00  0.00     0.023 A 
HETATM   20  C11 LIG X 999      -3.220  -1.406  -0.516  1.00  0.00     0.067 A 
HETATM   21 CL1  LIG X 999      -4.509  -2.562  -0.199  1.00  0.00    -0.082 Cl
HETATM   22  C12 LIG X 999      -3.287  -0.430  -1.575  1.00  0.00     0.128 A 
HETATM   23  C13 LIG X 999      -2.148   0.393  -1.828  1.00  0.00     0.042 A 
HETATM   24  C14 LIG X 999      -2.026   1.387  -2.836  1.00  0.00     0.109 A 
HETATM   25  C15 LIG X 999      -0.813   2.130  -2.937  1.00  0.00     0.072 A 
HETATM   26  C16 LIG X 999       0.284   1.906  -2.059  1.00  0.00     0.123 A 
BRANCH  22  27
HETATM   27  N6  LIG X 999      -4.456  -0.274  -2.398  1.00  0.00    -0.070 NA
HETATM   28  N7  LIG X 999      -5.595  -0.559  -2.028  1.00  0.00    -0.162 NA
HETATM   29  N8  LIG X 999      -6.738  -0.835  -1.666  1.00  0.00     0.068 N 
ENDBRANCH  22  27
BRANCH  24  30
HETATM   30  N9  LIG X 999      -3.114   1.640  -3.738  1.00  0.00    -0.072 NA
HETATM   31  N10 LIG X 999      -3.055   2.492  -4.627  1.00  0.00    -0.162 NA
HETATM   32  N11 LIG X 999      -2.999   3.342  -5.514  1.00  0.00     0.068 N 
ENDBRANCH  24  30
BRANCH  26  33
HETATM   33  N12 LIG X 999       1.484   2.678  -2.172  1.00  0.00    -0.070 NA
HETATM   34  N13 LIG X 999       1.631   3.556  -3.024  1.00  0.00    -0.162 NA
HETATM   35  N14 LIG X 999       1.780   4.432  -3.874  1.00  0.00     0.068 N 
ENDBRANCH  26  33
ENDBRANCH   3   4
TORSDOF 4
