REMARK  4 active torsions:
REMARK  status: ('A' for Active; 'I' for Inactive)
REMARK    1  A    between atoms: C3_3  and  S1_4 
REMARK    2  A    between atoms: S1_4  and  C4_7 
REMARK    3  A    between atoms: C9_12  and  C10_13 
REMARK    4  A    between atoms: C11_14  and  C12_15 
ROOT
HETATM    1  C1  LIG X 999       3.040   1.248  -4.042  1.00  0.00     0.013 C 
HETATM    2  C2  LIG X 999       1.876   1.283  -4.353  1.00  0.00    -0.102 C 
HETATM    3  C3  LIG X 999       0.461   1.324  -4.729  1.00  0.00     0.238 C 
ENDROOT
BRANCH   3   4
HETATM    4  S1  LIG X 999      -0.295  -0.264  -4.439  1.00  0.00     0.185 S 
HETATM    5  O1  LIG X 999       0.385  -1.308  -5.280  1.00  0.00    -0.222 OA
HETATM    6  O2  LIG X 999      -1.745  -0.205  -4.829  1.00  0.00    -0.222 OA
BRANCH   4   7
HETATM    7  C4  LIG X 999      -0.162  -0.685  -2.734  1.00  0.00     0.060 A 
HETATM    8  C5  LIG X 999       0.893  -1.493  -2.286  1.00  0.00     0.024 A 
HETATM    9  C6  LIG X 999       1.012  -1.812  -0.931  1.00  0.00     0.014 A 
HETATM   10  C7  LIG X 999       0.079  -1.323  -0.006  1.00  0.00    -0.025 A 
HETATM   11  C8  LIG X 999       0.190  -1.637   1.357  1.00  0.00     0.032 A 
HETATM   12  C16 LIG X 999      -0.984  -0.500  -0.452  1.00  0.00    -0.024 A 
HETATM   13  C9  LIG X 999      -0.746  -1.139   2.273  1.00  0.00     0.019 A 
HETATM   14  C14 LIG X 999      -1.796  -0.326   1.829  1.00  0.00     0.021 A 
HETATM   15  C15 LIG X 999      -1.915  -0.007   0.474  1.00  0.00     0.014 A 
HETATM   16  C17 LIG X 999      -1.095  -0.186  -1.815  1.00  0.00     0.035 A 
BRANCH  13  17
HETATM   17  C10 LIG X 999      -0.629  -1.463   3.670  1.00  0.00    -0.058 C 
HETATM   18  C11 LIG X 999      -0.529  -1.734   4.841  1.00  0.00    -0.007 C 
BRANCH  18  19
HETATM   19  C12 LIG X 999      -0.410  -2.058   6.234  1.00  0.00     0.305 C 
HETATM   20  O3  LIG X 999      -1.411  -2.478   6.870  1.00  0.00    -0.266 OA
HETATM   21  C13 LIG X 999       0.851  -1.901   6.902  1.00  0.00     0.152 C 
HETATM   22  N1  LIG X 999       1.867  -1.775   7.441  1.00  0.00    -0.187 NA
ENDBRANCH  18  19
ENDBRANCH  13  17
ENDBRANCH   4   7
ENDBRANCH   3   4
TORSDOF 4
