REMARK  2 active torsions:
REMARK  status: ('A' for Active; 'I' for Inactive)
REMARK    1  A    between atoms: C2_3  and  C3_5 
REMARK    2  A    between atoms: C4_6  and  C5_7 
ROOT
HETATM    1  N1  LIG X 999       6.856  -0.128   0.171  1.00  0.00    -0.187 NA
HETATM    2  C1  LIG X 999       5.963   0.524  -0.167  1.00  0.00     0.152 C 
HETATM    3  C2  LIG X 999       4.853   1.333  -0.587  1.00  0.00     0.305 C 
HETATM    4  O1  LIG X 999       5.059   2.456  -1.115  1.00  0.00    -0.266 OA
ENDROOT
BRANCH   3   5
HETATM    5  C3  LIG X 999       3.511   0.861  -0.404  1.00  0.00    -0.007 C 
HETATM    6  C4  LIG X 999       2.383   0.464  -0.250  1.00  0.00    -0.058 C 
BRANCH   6   7
HETATM    7  C5  LIG X 999       1.036  -0.011  -0.066  1.00  0.00     0.019 A 
HETATM    8  C6  LIG X 999       0.810  -1.261   0.523  1.00  0.00     0.021 A 
HETATM    9  C7  LIG X 999      -0.495  -1.728   0.705  1.00  0.00     0.013 A 
HETATM   10  C8  LIG X 999      -1.587  -0.947   0.298  1.00  0.00    -0.026 A 
HETATM   11  C9  LIG X 999      -2.901  -1.406   0.476  1.00  0.00     0.012 A 
HETATM   12  C13 LIG X 999      -1.361   0.319  -0.297  1.00  0.00    -0.025 A 
HETATM   13  C10 LIG X 999      -3.981  -0.617   0.067  1.00  0.00     0.001 A 
HETATM   14  C11 LIG X 999      -3.758   0.631  -0.520  1.00  0.00     0.001 A 
HETATM   15  C12 LIG X 999      -2.454   1.100  -0.703  1.00  0.00     0.012 A 
HETATM   16  C14 LIG X 999      -0.046   0.779  -0.475  1.00  0.00     0.032 A 
ENDBRANCH   6   7
ENDBRANCH   3   5
TORSDOF 2
