REMARK  3 active torsions:
REMARK  status: ('A' for Active; 'I' for Inactive)
REMARK    1  A    between atoms: C7_8  and  N2_9 
REMARK    2  A    between atoms: C9_13  and  N5_14 
REMARK    3  A    between atoms: C16_25  and  N9_26 
ROOT
HETATM    1  N1  LIG X 999       2.040  -2.962  -5.059  1.00  0.00    -0.191 NA
HETATM    2  C1  LIG X 999       1.915  -2.412  -4.048  1.00  0.00     0.101 C 
HETATM    3  C2  LIG X 999       1.757  -1.727  -2.789  1.00  0.00     0.068 A 
HETATM    4  C3  LIG X 999       0.457  -1.335  -2.399  1.00  0.00     0.040 A 
HETATM    5  C4  LIG X 999       0.320  -0.676  -1.184  1.00  0.00     0.026 A 
HETATM    6  C5  LIG X 999       1.394  -0.417  -0.398  1.00  0.00     0.022 A 
HETATM    7  C6  LIG X 999       2.699  -0.770  -0.712  1.00  0.00     0.032 A 
HETATM    8  C7  LIG X 999       3.692  -0.412   0.241  1.00  0.00     0.108 A 
HETATM    9  C8  LIG X 999       3.301   0.270   1.432  1.00  0.00     0.072 A 
HETATM   10  C9  LIG X 999       1.945   0.606   1.699  1.00  0.00     0.123 A 
HETATM   11  C10 LIG X 999       0.985   0.237   0.735  1.00  0.00     0.088 A 
HETATM   12  N8  LIG X 999      -0.374   0.402   0.675  1.00  0.00    -0.258 N 
HETATM   13  C11 LIG X 999      -1.292   0.973   1.511  1.00  0.00     0.266 A 
HETATM   14  O1  LIG X 999      -0.948   1.497   2.602  1.00  0.00    -0.267 OA
HETATM   15  C12 LIG X 999      -2.653   0.967   1.128  1.00  0.00     0.064 A 
HETATM   16  C13 LIG X 999      -3.648   1.537   1.939  1.00  0.00     0.020 A 
HETATM   17  C14 LIG X 999      -4.982   1.516   1.535  1.00  0.00     0.004 A 
HETATM   18  C15 LIG X 999      -5.342   0.930   0.321  1.00  0.00     0.037 A 
HETATM   19  C16 LIG X 999      -4.378   0.352  -0.514  1.00  0.00     0.122 A 
HETATM   20  C17 LIG X 999      -3.017   0.367  -0.113  1.00  0.00     0.106 A 
HETATM   21  N12 LIG X 999      -2.052  -0.185  -0.898  1.00  0.00    -0.226 NA
HETATM   22  C18 LIG X 999      -0.759  -0.161  -0.500  1.00  0.00     0.149 A 
HETATM   23  C19 LIG X 999       2.889  -1.452  -1.955  1.00  0.00     0.068 A 
HETATM   24 CL1  LIG X 999       4.487  -1.971  -2.506  1.00  0.00    -0.082 Cl
ENDROOT
BRANCH   8  25
HETATM   25  N2  LIG X 999       5.072  -0.732   0.010  1.00  0.00    -0.072 NA
HETATM   26  N3  LIG X 999       5.965  -0.441   0.808  1.00  0.00    -0.162 NA
HETATM   27  N4  LIG X 999       6.857  -0.151   1.603  1.00  0.00     0.068 N 
ENDBRANCH   8  25
BRANCH  10  28
HETATM   28  N5  LIG X 999       1.581   1.291   2.902  1.00  0.00    -0.070 NA
HETATM   29  N6  LIG X 999       2.408   1.621   3.755  1.00  0.00    -0.162 NA
HETATM   30  N7  LIG X 999       3.231   1.950   4.607  1.00  0.00     0.068 N 
ENDBRANCH  10  28
BRANCH  19  31
HETATM   31  N9  LIG X 999      -4.836  -0.231  -1.747  1.00  0.00    -0.070 NA
HETATM   32  N10 LIG X 999      -4.092  -0.769  -2.568  1.00  0.00    -0.162 NA
HETATM   33  N11 LIG X 999      -3.356  -1.309  -3.393  1.00  0.00     0.068 N 
ENDBRANCH  19  31
TORSDOF 3
