REMARK  2 active torsions:
REMARK  status: ('A' for Active; 'I' for Inactive)
REMARK    1  A    between atoms: N3_3  and  C1_4 
REMARK    2  A    between atoms: C3_6  and  N4_7 
ROOT
HETATM    1  N1  LIG X 999       3.096   4.486   3.758  1.00  0.00     0.068 N 
HETATM    2  N2  LIG X 999       2.045   4.289   3.150  1.00  0.00    -0.162 NA
HETATM    3  N3  LIG X 999       0.992   4.093   2.542  1.00  0.00    -0.072 NA
ENDROOT
BRANCH   3   4
HETATM    4  C1  LIG X 999       0.644   2.817   1.984  1.00  0.00     0.108 A 
HETATM    5  C2  LIG X 999       1.530   1.707   2.121  1.00  0.00     0.072 A 
HETATM    6  C3  LIG X 999       1.223   0.426   1.585  1.00  0.00     0.123 A 
HETATM    7  C4  LIG X 999      -0.003   0.286   0.902  1.00  0.00     0.088 A 
HETATM    8  C5  LIG X 999      -0.830   1.372   0.788  1.00  0.00     0.022 A 
HETATM    9  N8  LIG X 999      -0.596  -0.781   0.278  1.00  0.00    -0.259 N 
HETATM   10  C6  LIG X 999      -0.585   2.643   1.290  1.00  0.00     0.033 A 
HETATM   11  C10 LIG X 999      -1.947   1.023   0.101  1.00  0.00     0.024 A 
HETATM   12  C7  LIG X 999      -1.595   3.626   1.051  1.00  0.00     0.069 A 
HETATM   13 CL1  LIG X 999      -1.444   5.290   1.619  1.00  0.00    -0.082 Cl
HETATM   14  C8  LIG X 999      -2.774   3.262   0.327  1.00  0.00     0.057 A 
HETATM   15 CL2  LIG X 999      -4.045   4.436   0.007  1.00  0.00    -0.082 Cl
HETATM   16  C9  LIG X 999      -2.953   1.947  -0.153  1.00  0.00     0.042 A 
HETATM   17  C11 LIG X 999      -1.780  -0.315  -0.204  1.00  0.00     0.127 A 
HETATM   18  N7  LIG X 999      -2.643  -1.106  -0.889  1.00  0.00    -0.338 N 
HETATM   19  C12 LIG X 999      -2.325  -2.417  -1.108  1.00  0.00     0.086 A 
HETATM   20  H3  LIG X 999      -3.541  -0.704  -1.241  1.00  0.00     0.167 HD
HETATM   21  C13 LIG X 999      -3.204  -3.260  -1.816  1.00  0.00     0.135 A 
HETATM   22  C17 LIG X 999      -1.096  -2.940  -0.619  1.00  0.00     0.062 A 
HETATM   23  O1  LIG X 999      -4.412  -2.777  -2.306  1.00  0.00    -0.190 OA
HETATM   24  C14 LIG X 999      -2.867  -4.600  -2.033  1.00  0.00     0.042 A 
HETATM   25  C15 LIG X 999      -1.661  -5.112  -1.553  1.00  0.00     0.004 A 
HETATM   26  C16 LIG X 999      -0.778  -4.291  -0.850  1.00  0.00     0.020 A 
HETATM   27  C18 LIG X 999      -0.225  -2.083   0.089  1.00  0.00     0.266 A 
HETATM   28  O2  LIG X 999       0.868  -2.524   0.531  1.00  0.00    -0.267 OA
BRANCH   6  29
HETATM   29  N4  LIG X 999       2.132  -0.670   1.738  1.00  0.00    -0.070 NA
HETATM   30  N5  LIG X 999       3.207  -0.563   2.331  1.00  0.00    -0.162 NA
HETATM   31  N6  LIG X 999       4.280  -0.459   2.924  1.00  0.00     0.068 N 
ENDBRANCH   6  29
ENDBRANCH   3   4
TORSDOF 2
