REMARK  5 active torsions:
REMARK  status: ('A' for Active; 'I' for Inactive)
REMARK    1  A    between atoms: N3_3  and  C1_4 
REMARK    2  A    between atoms: C2_5  and  S1_6 
REMARK    3  A    between atoms: S1_6  and  C3_9 
REMARK    4  A    between atoms: C3_9  and  C4_10 
REMARK    5  A    between atoms: C15_23  and  N4_24 
ROOT
HETATM    1  N1  LIG X 999      -0.878  -0.929  -3.918  1.00  0.00     0.068 N 
HETATM    2  N2  LIG X 999      -0.327  -0.829  -2.823  1.00  0.00    -0.162 NA
HETATM    3  N3  LIG X 999       0.227  -0.731  -1.727  1.00  0.00    -0.070 NA
ENDROOT
BRANCH   3   4
HETATM    4  C1  LIG X 999       0.567   0.541  -1.154  1.00  0.00     0.125 C 
HETATM    5  C2  LIG X 999       1.833   0.693  -0.549  1.00  0.00     0.091 C 
HETATM    6  C12 LIG X 999       2.219   1.939  -0.051  1.00  0.00     0.027 C 
HETATM    7  C13 LIG X 999       1.370   3.037  -0.141  1.00  0.00     0.016 C 
HETATM    8  C14 LIG X 999       0.081   2.909  -0.689  1.00  0.00     0.005 A 
HETATM    9  C15 LIG X 999      -0.823   4.007  -0.727  1.00  0.00     0.069 A 
HETATM   10  C20 LIG X 999      -0.349   1.629  -1.142  1.00  0.00     0.009 A 
HETATM   11  C17 LIG X 999      -2.159   3.786  -1.075  1.00  0.00     0.032 A 
HETATM   12  C18 LIG X 999      -2.598   2.518  -1.440  1.00  0.00     0.003 A 
HETATM   13  C19 LIG X 999      -1.706   1.451  -1.485  1.00  0.00     0.015 A 
BRANCH   5  14
HETATM   14  S1  LIG X 999       2.900  -0.696  -0.263  1.00  0.00     0.182 S 
HETATM   15  O1  LIG X 999       2.770  -1.703  -1.371  1.00  0.00    -0.222 OA
HETATM   16  O2  LIG X 999       4.328  -0.230  -0.218  1.00  0.00    -0.222 OA
BRANCH  14  17
HETATM   17  C3  LIG X 999       2.490  -1.464   1.302  1.00  0.00     0.192 C 
BRANCH  17  18
HETATM   18  C4  LIG X 999       1.007  -1.574   1.457  1.00  0.00    -0.002 A 
HETATM   19  C5  LIG X 999       0.175  -0.543   1.899  1.00  0.00     0.028 A 
HETATM   20  C6  LIG X 999      -1.178  -0.830   1.701  1.00  0.00    -0.016 A 
HETATM   21  C7  LIG X 999      -2.247   0.030   1.964  1.00  0.00     0.036 A 
HETATM   22  C11 LIG X 999      -1.404  -2.075   1.132  1.00  0.00     0.015 A 
HETATM   23  C8  LIG X 999      -3.550  -0.394   1.649  1.00  0.00     0.035 A 
HETATM   24 CL1  LIG X 999      -4.909   0.673   1.948  1.00  0.00    -0.084 Cl
HETATM   25  C9  LIG X 999      -3.767  -1.665   1.079  1.00  0.00     0.025 A 
HETATM   26  C10 LIG X 999      -2.685  -2.518   0.813  1.00  0.00     0.021 A 
HETATM   27  S2  LIG X 999       0.064  -2.837   0.840  1.00  0.00    -0.093 SA
ENDBRANCH  17  18
ENDBRANCH  14  17
ENDBRANCH   5  14
BRANCH   9  28
HETATM   28  N4  LIG X 999      -0.439   5.351  -0.403  1.00  0.00    -0.233 NA
HETATM   29  C16 LIG X 999       0.578   5.920  -0.918  1.00  0.00     0.163 C 
HETATM   30  S3  LIG X 999       1.864   6.637  -1.571  1.00  0.00    -0.055 SA
ENDBRANCH   9  28
ENDBRANCH   3   4
TORSDOF 5
