REMARK  4 active torsions:
REMARK  status: ('A' for Active; 'I' for Inactive)
REMARK    1  A    between atoms: S1_2  and  C1_4 
REMARK    2  A    between atoms: S1_2  and  C5_13 
REMARK    3  A    between atoms: C1_4  and  C2_5 
REMARK    4  A    between atoms: N3_9  and  C4_10 
ROOT
HETATM    1  O1  LIG X 999       1.149  -2.410  -1.287  1.00  0.00    -0.222 OA
HETATM    2  S1  LIG X 999       0.937  -1.007  -0.791  1.00  0.00     0.181 S 
HETATM    3  O2  LIG X 999       1.435  -0.047  -1.835  1.00  0.00    -0.222 OA
ENDROOT
BRANCH   2   4
HETATM    4  C1  LIG X 999       1.825  -0.771   0.737  1.00  0.00     0.206 C 
BRANCH   4   5
HETATM    5  C2  LIG X 999       3.301  -0.884   0.505  1.00  0.00     0.069 A 
HETATM    6  C3  LIG X 999       4.046  -2.046   0.516  1.00  0.00     0.168 A 
HETATM    7  N1  LIG X 999       5.325  -1.719   0.237  1.00  0.00    -0.169 NA
HETATM    8  N2  LIG X 999       5.348  -0.407   0.053  1.00  0.00    -0.213 N 
HETATM    9  N3  LIG X 999       4.141   0.121   0.188  1.00  0.00    -0.218 N 
HETATM   10  H4  LIG X 999       6.215   0.134  -0.162  1.00  0.00     0.211 HD
BRANCH   9  11
HETATM   11  C4  LIG X 999       3.847   1.551   0.124  1.00  0.00     0.480 C 
HETATM   12  F1  LIG X 999       4.728   2.181  -0.738  1.00  0.00    -0.189 F 
HETATM   13  F2  LIG X 999       3.968   2.104   1.385  1.00  0.00    -0.189 F 
ENDBRANCH   9  11
ENDBRANCH   4   5
ENDBRANCH   2   4
BRANCH   2  14
HETATM   14  C5  LIG X 999      -0.777  -0.726  -0.506  1.00  0.00     0.060 A 
HETATM   15  C6  LIG X 999      -1.633  -1.800  -0.229  1.00  0.00     0.024 A 
HETATM   16  C7  LIG X 999      -2.991  -1.577   0.013  1.00  0.00     0.014 A 
HETATM   17  C8  LIG X 999      -3.507  -0.273  -0.012  1.00  0.00    -0.026 A 
HETATM   18  C9  LIG X 999      -4.870  -0.037   0.231  1.00  0.00     0.012 A 
HETATM   19  C13 LIG X 999      -2.644   0.817  -0.282  1.00  0.00    -0.025 A 
HETATM   20  C10 LIG X 999      -5.370   1.268   0.207  1.00  0.00     0.001 A 
HETATM   21  C11 LIG X 999      -4.519   2.343  -0.059  1.00  0.00     0.001 A 
HETATM   22  C12 LIG X 999      -3.160   2.122  -0.303  1.00  0.00     0.012 A 
HETATM   23  C14 LIG X 999      -1.283   0.581  -0.525  1.00  0.00     0.035 A 
ENDBRANCH   2  14
TORSDOF 4
