REMARK  4 active torsions:
REMARK  status: ('A' for Active; 'I' for Inactive)
REMARK    1  A    between atoms: C3_3  and  S1_4 
REMARK    2  A    between atoms: S1_4  and  C4_7 
REMARK    3  A    between atoms: C10_13  and  C11_14 
REMARK    4  A    between atoms: C12_15  and  C13_16 
ROOT
HETATM    1  C1  LIG X 999      -1.837   3.158  -1.648  1.00  0.00     0.013 C 
HETATM    2  C2  LIG X 999      -0.942   3.165  -2.455  1.00  0.00    -0.102 C 
HETATM    3  C3  LIG X 999       0.148   3.169  -3.435  1.00  0.00     0.238 C 
ENDROOT
BRANCH   3   4
HETATM    4  S1  LIG X 999       1.556   2.288  -2.789  1.00  0.00     0.185 S 
HETATM    5  O1  LIG X 999       2.044   2.961  -1.536  1.00  0.00    -0.222 OA
HETATM    6  O2  LIG X 999       2.663   2.306  -3.805  1.00  0.00    -0.222 OA
BRANCH   4   7
HETATM    7  C4  LIG X 999       1.106   0.621  -2.437  1.00  0.00     0.060 A 
HETATM    8  C5  LIG X 999       1.175  -0.351  -3.444  1.00  0.00     0.024 A 
HETATM    9  C6  LIG X 999       0.801  -1.671  -3.178  1.00  0.00     0.014 A 
HETATM   10  C7  LIG X 999       0.347  -2.033  -1.902  1.00  0.00    -0.026 A 
HETATM   11  C8  LIG X 999      -0.033  -3.354  -1.625  1.00  0.00     0.014 A 
HETATM   12  C16 LIG X 999       0.269  -1.052  -0.883  1.00  0.00    -0.023 A 
HETATM   13  C9  LIG X 999      -0.488  -3.703  -0.350  1.00  0.00     0.021 A 
HETATM   14  C10 LIG X 999      -0.568  -2.735   0.659  1.00  0.00     0.019 A 
HETATM   15  C15 LIG X 999      -0.191  -1.412   0.394  1.00  0.00     0.032 A 
HETATM   16  C17 LIG X 999       0.648   0.270  -1.160  1.00  0.00     0.035 A 
BRANCH  14  17
HETATM   17  C11 LIG X 999      -1.039  -3.100   1.969  1.00  0.00    -0.058 C 
HETATM   18  C12 LIG X 999      -1.433  -3.405   3.067  1.00  0.00    -0.007 C 
BRANCH  18  19
HETATM   19  C13 LIG X 999      -1.902  -3.767   4.375  1.00  0.00     0.305 C 
HETATM   20  O3  LIG X 999      -2.192  -4.964   4.629  1.00  0.00    -0.266 OA
HETATM   21  C14 LIG X 999      -2.040  -2.763   5.391  1.00  0.00     0.152 C 
HETATM   22  N1  LIG X 999      -2.151  -1.954   6.211  1.00  0.00    -0.187 NA
ENDBRANCH  18  19
ENDBRANCH  14  17
ENDBRANCH   4   7
ENDBRANCH   3   4
TORSDOF 4
