REMARK  2 active torsions:
REMARK  status: ('A' for Active; 'I' for Inactive)
REMARK    1  A    between atoms: N1_1  and  C1_2 
REMARK    2  A    between atoms: C6_7  and  N2_8 
ROOT
HETATM    1  N2  LIG X 999       2.426  -1.165  -0.214  1.00  0.00    -0.233 NA
HETATM    2  C7  LIG X 999       3.699  -1.131  -0.172  1.00  0.00     0.163 C 
HETATM    3  S1  LIG X 999       5.309  -1.089  -0.119  1.00  0.00    -0.055 SA
ENDROOT
BRANCH   1   4
HETATM    4  C6  LIG X 999       1.569  -0.129   0.304  1.00  0.00     0.069 A 
HETATM    5  C5  LIG X 999       0.164  -0.265   0.205  1.00  0.00     0.005 A 
HETATM    6  C4  LIG X 999      -0.402  -1.398  -0.410  1.00  0.00     0.015 A 
HETATM    7  C11 LIG X 999      -0.695   0.750   0.724  1.00  0.00     0.003 A 
HETATM    8  C3  LIG X 999      -1.783  -1.530  -0.520  1.00  0.00     0.003 A 
HETATM    9  C2  LIG X 999      -2.625  -0.549  -0.009  1.00  0.00     0.030 A 
HETATM   10  C1  LIG X 999      -2.105   0.588   0.627  1.00  0.00     0.036 A 
HETATM   11  C10 LIG X 999      -0.111   1.897   1.303  1.00  0.00     0.014 A 
HETATM   12  C9  LIG X 999       1.273   2.024   1.393  1.00  0.00     0.003 A 
HETATM   13  C8  LIG X 999       2.108   1.024   0.905  1.00  0.00     0.032 A 
BRANCH  10  14
HETATM   14  N1  LIG X 999      -3.034   1.540   1.169  1.00  0.00    -0.398 N 
HETATM   15  H1  LIG X 999      -4.056   1.446   0.973  1.00  0.00     0.156 HD
HETATM   16  H2  LIG X 999      -2.764   2.278   1.852  1.00  0.00     0.156 HD
ENDBRANCH  10  14
ENDBRANCH   1   4
TORSDOF 2
