REMARK  6 active torsions:
REMARK  status: ('A' for Active; 'I' for Inactive)
REMARK    1  A    between atoms: C2_2  and  C3_4 
REMARK    2  A    between atoms: C3_4  and  N1_5 
REMARK    3  A    between atoms: N1_5  and  C4_6 
REMARK    4  A    between atoms: C4_6  and  C5_7 
REMARK    5  A    between atoms: C4_6  and  C6_11 
REMARK    6  A    between atoms: C5_7  and  N2_8 
ROOT
HETATM    1  N2  LIG X 999      -1.123   3.172   0.796  1.00  0.00    -0.113 NA
HETATM    2  N3  LIG X 999      -1.609   3.960   1.607  1.00  0.00    -0.168 NA
HETATM    3  N4  LIG X 999      -2.095   4.747   2.418  1.00  0.00     0.068 N 
ENDROOT
BRANCH   1   4
HETATM    4  C5  LIG X 999      -1.971   2.296  -0.006  1.00  0.00     0.227 C 
BRANCH   4   5
HETATM    5  C4  LIG X 999      -1.646   0.818   0.289  1.00  0.00     0.241 C 
BRANCH   5   6
HETATM    6  N1  LIG X 999      -2.541  -0.072  -0.483  1.00  0.00    -0.060 N 
HETATM    7  H5  LIG X 999      -2.355   0.031  -1.508  1.00  0.00     0.278 HD
HETATM    8  H6  LIG X 999      -3.534   0.211  -0.304  1.00  0.00     0.278 HD
BRANCH   6   9
HETATM    9  C3  LIG X 999      -2.391  -1.484  -0.087  1.00  0.00     0.283 C 
BRANCH   9  10
HETATM   10  C2  LIG X 999      -3.389  -2.355  -0.807  1.00  0.00     0.028 C 
HETATM   11  C1  LIG X 999      -3.275  -2.600  -2.116  1.00  0.00     0.034 C 
HETATM   12 CL1  LIG X 999      -4.708  -3.089   0.097  1.00  0.00    -0.088 Cl
ENDBRANCH   9  10
ENDBRANCH   6   9
ENDBRANCH   5   6
BRANCH   5  13
HETATM   13  C6  LIG X 999      -0.177   0.520   0.009  1.00  0.00    -0.025 A 
HETATM   14  C7  LIG X 999       0.355   0.651  -1.287  1.00  0.00     0.010 A 
HETATM   15  C8  LIG X 999       1.700   0.366  -1.537  1.00  0.00     0.013 A 
HETATM   16  C9  LIG X 999       2.537  -0.055  -0.496  1.00  0.00    -0.026 A 
HETATM   17  C10 LIG X 999       3.890  -0.344  -0.738  1.00  0.00     0.012 A 
HETATM   18  C14 LIG X 999       2.014  -0.190   0.812  1.00  0.00    -0.025 A 
HETATM   19  C11 LIG X 999       4.715  -0.763   0.309  1.00  0.00     0.001 A 
HETATM   20  C12 LIG X 999       4.199  -0.898   1.601  1.00  0.00     0.001 A 
HETATM   21  C13 LIG X 999       2.854  -0.613   1.854  1.00  0.00     0.012 A 
HETATM   22  C15 LIG X 999       0.663   0.098   1.054  1.00  0.00     0.021 A 
ENDBRANCH   5  13
ENDBRANCH   4   5
ENDBRANCH   1   4
TORSDOF 6
