REMARK  3 active torsions:
REMARK  status: ('A' for Active; 'I' for Inactive)
REMARK    1  A    between atoms: C1_2  and  C2_3 
REMARK    2  A    between atoms: C1_2  and  C14_15 
REMARK    3  A    between atoms: C3_4  and  C4_5 
ROOT
HETATM    1  C4  LIG X 999      -0.040  -0.116  -0.206  1.00  0.00     0.019 A 
HETATM    2  C5  LIG X 999       0.043  -1.322   0.501  1.00  0.00     0.021 A 
HETATM    3  C6  LIG X 999      -1.092  -2.120   0.668  1.00  0.00     0.013 A 
HETATM    4  C7  LIG X 999      -2.323  -1.718   0.128  1.00  0.00    -0.026 A 
HETATM    5  C8  LIG X 999      -3.469  -2.511   0.289  1.00  0.00     0.012 A 
HETATM    6  C9  LIG X 999      -4.690  -2.099  -0.253  1.00  0.00     0.001 A 
HETATM    7  C10 LIG X 999      -4.776  -0.895  -0.959  1.00  0.00     0.001 A 
HETATM    8  C11 LIG X 999      -3.642  -0.096  -1.128  1.00  0.00     0.012 A 
HETATM    9  C12 LIG X 999      -2.410  -0.498  -0.588  1.00  0.00    -0.025 A 
HETATM   10  C13 LIG X 999      -1.264   0.296  -0.750  1.00  0.00     0.032 A 
ENDROOT
BRANCH   1  11
HETATM   11  C3  LIG X 999       1.134   0.701  -0.374  1.00  0.00    -0.058 C 
HETATM   12  C2  LIG X 999       2.117   1.383  -0.514  1.00  0.00    -0.015 C 
BRANCH  12  13
HETATM   13  C1  LIG X 999       3.292   2.196  -0.678  1.00  0.00     0.276 C 
HETATM   14  O1  LIG X 999       3.409   2.913  -1.706  1.00  0.00    -0.274 OA
BRANCH  13  15
HETATM   15  C14 LIG X 999       4.349   2.193   0.341  1.00  0.00     0.246 A 
HETATM   16  N1  LIG X 999       5.478   2.925   0.261  1.00  0.00    -0.132 NA
HETATM   17  N2  LIG X 999       6.148   2.634   1.365  1.00  0.00     0.022 NA
HETATM   18  N3  LIG X 999       5.452   1.765   2.078  1.00  0.00    -0.200 N 
HETATM   19  N4  LIG X 999       4.317   1.462   1.471  1.00  0.00    -0.134 NA
HETATM   20  H8  LIG X 999       5.757   1.371   2.995  1.00  0.00     0.208 HD
ENDBRANCH  13  15
ENDBRANCH  12  13
ENDBRANCH   1  11
TORSDOF 3
