REMARK  3 active torsions:
REMARK  status: ('A' for Active; 'I' for Inactive)
REMARK    1  A    between atoms: N3_3  and  C1_4 
REMARK    2  A    between atoms: C1_4  and  C2_5 
REMARK    3  A    between atoms: C2_5  and  C3_7 
ROOT
HETATM    1  N1  LIG X 999       4.364   4.723  -2.468  1.00  0.00     0.068 N 
HETATM    2  N2  LIG X 999       3.269   4.197  -2.271  1.00  0.00    -0.167 NA
HETATM    3  N3  LIG X 999       2.174   3.672  -2.073  1.00  0.00    -0.108 NA
ENDROOT
BRANCH   3   4
HETATM    4  C1  LIG X 999       1.430   3.920  -0.845  1.00  0.00     0.272 C 
BRANCH   4   5
HETATM    5  C2  LIG X 999       1.209   2.626  -0.116  1.00  0.00     0.181 C 
HETATM    6  O1  LIG X 999       1.931   2.381   0.888  1.00  0.00    -0.290 OA
BRANCH   5   7
HETATM    7  C3  LIG X 999       0.196   1.625  -0.554  1.00  0.00     0.012 A 
HETATM    8  C4  LIG X 999      -0.522   1.782  -1.756  1.00  0.00     0.016 A 
HETATM    9  C5  LIG X 999      -1.468   0.835  -2.154  1.00  0.00     0.013 A 
HETATM   10  C6  LIG X 999      -1.718  -0.292  -1.361  1.00  0.00    -0.026 A 
HETATM   11  C7  LIG X 999      -2.667  -1.249  -1.754  1.00  0.00     0.012 A 
HETATM   12  C11 LIG X 999      -1.004  -0.467  -0.152  1.00  0.00    -0.025 A 
HETATM   13  C8  LIG X 999      -2.905  -2.369  -0.953  1.00  0.00     0.001 A 
HETATM   14  C9  LIG X 999      -2.201  -2.543   0.241  1.00  0.00     0.001 A 
HETATM   15  C10 LIG X 999      -1.254  -1.597   0.643  1.00  0.00     0.012 A 
HETATM   16  C12 LIG X 999      -0.055   0.489   0.241  1.00  0.00     0.027 A 
ENDBRANCH   5   7
ENDBRANCH   4   5
ENDBRANCH   3   4
TORSDOF 3
