REMARK  5 active torsions:
REMARK  status: ('A' for Active; 'I' for Inactive)
REMARK    1  A    between atoms: N3_3  and  C1_4 
REMARK    2  A    between atoms: C6_9  and  N4_10 
REMARK    3  A    between atoms: C8_14  and  N7_15 
REMARK    4  A    between atoms: C15_26  and  N11_27 
REMARK    5  A    between atoms: C18_33  and  N15_34 
ROOT
HETATM    1  N1  LIG X 999      -2.204   5.303  -1.798  1.00  0.00     0.068 N 
HETATM    2  N2  LIG X 999      -2.774   4.302  -1.367  1.00  0.00    -0.162 NA
HETATM    3  N3  LIG X 999      -3.347   3.301  -0.935  1.00  0.00    -0.070 NA
ENDROOT
BRANCH   3   4
HETATM    4  C1  LIG X 999      -2.642   2.099  -0.586  1.00  0.00     0.121 A 
HETATM    5  C2  LIG X 999      -1.229   2.032  -0.710  1.00  0.00     0.053 A 
HETATM    6  C3  LIG X 999      -0.597   0.857  -0.327  1.00  0.00     0.025 A 
HETATM    7  C4  LIG X 999      -1.306  -0.204   0.132  1.00  0.00     0.023 A 
HETATM    8  C17 LIG X 999       0.723   0.446  -0.309  1.00  0.00     0.127 A 
HETATM    9  C5  LIG X 999      -2.687  -0.226   0.263  1.00  0.00     0.038 A 
HETATM   10  C9  LIG X 999      -0.451  -1.238   0.412  1.00  0.00     0.088 A 
HETATM   11  C6  LIG X 999      -3.255  -1.459   0.688  1.00  0.00     0.109 A 
HETATM   12  C18 LIG X 999      -3.378   0.979  -0.080  1.00  0.00     0.071 A 
HETATM   13  C7  LIG X 999      -2.394  -2.550   1.009  1.00  0.00     0.072 A 
HETATM   14  C8  LIG X 999      -0.981  -2.457   0.884  1.00  0.00     0.123 A 
HETATM   15  N10 LIG X 999       0.829  -0.833   0.137  1.00  0.00    -0.259 N 
HETATM   16  C10 LIG X 999       2.043  -1.455   0.198  1.00  0.00     0.266 A 
HETATM   17  O1  LIG X 999       2.148  -2.651   0.577  1.00  0.00    -0.267 OA
HETATM   18  C11 LIG X 999       3.195  -0.734  -0.186  1.00  0.00     0.062 A 
HETATM   19  C12 LIG X 999       4.467  -1.334  -0.185  1.00  0.00     0.019 A 
HETATM   20  C16 LIG X 999       3.056   0.623  -0.605  1.00  0.00     0.081 A 
HETATM   21  C13 LIG X 999       5.585  -0.617  -0.602  1.00  0.00     0.004 A 
HETATM   22  C14 LIG X 999       5.460   0.715  -0.994  1.00  0.00     0.037 A 
HETATM   23  C15 LIG X 999       4.218   1.358  -0.966  1.00  0.00     0.120 A 
HETATM   24  N14 LIG X 999       1.804   1.171  -0.691  1.00  0.00    -0.338 N 
HETATM   25  H6  LIG X 999       1.649   2.125  -1.079  1.00  0.00     0.167 HD
BRANCH  11  26
HETATM   26  N4  LIG X 999      -4.680  -1.626   0.737  1.00  0.00    -0.072 NA
HETATM   27  N5  LIG X 999      -5.215  -2.681   1.082  1.00  0.00    -0.162 NA
HETATM   28  N6  LIG X 999      -5.751  -3.733   1.427  1.00  0.00     0.068 N 
ENDBRANCH  11  26
BRANCH  14  29
HETATM   29  N7  LIG X 999      -0.140  -3.565   1.225  1.00  0.00    -0.070 NA
HETATM   30  N8  LIG X 999      -0.587  -4.635   1.641  1.00  0.00    -0.162 NA
HETATM   31  N9  LIG X 999      -1.032  -5.704   2.056  1.00  0.00     0.068 N 
ENDBRANCH  14  29
BRANCH  12  32
HETATM   32  N15 LIG X 999      -4.792   1.117   0.124  1.00  0.00    -0.396 N 
HETATM   33  H7  LIG X 999      -5.346   1.815  -0.421  1.00  0.00     0.156 HD
HETATM   34  H8  LIG X 999      -5.259   0.699   0.957  1.00  0.00     0.156 HD
ENDBRANCH  12  32
BRANCH  23  35
HETATM   35  N11 LIG X 999       4.189   2.754  -1.295  1.00  0.00    -0.070 NA
HETATM   36  N12 LIG X 999       3.544   3.570  -0.635  1.00  0.00    -0.162 NA
HETATM   37  N13 LIG X 999       2.903   4.387   0.025  1.00  0.00     0.068 N 
ENDBRANCH  23  35
ENDBRANCH   3   4
TORSDOF 5
