REMARK  5 active torsions:
REMARK  status: ('A' for Active; 'I' for Inactive)
REMARK    1  A    between atoms: N3_3  and  C1_4 
REMARK    2  A    between atoms: C6_9  and  N4_10 
REMARK    3  A    between atoms: C8_14  and  N7_15 
REMARK    4  A    between atoms: C15_26  and  N11_27 
REMARK    5  A    between atoms: C18_33  and  N15_34 
ROOT
HETATM    1  N1  LIG X 999       4.439  -4.712   0.845  1.00  0.00     0.068 N 
HETATM    2  N2  LIG X 999       3.438  -4.325   0.242  1.00  0.00    -0.162 NA
HETATM    3  N3  LIG X 999       2.434  -3.942  -0.360  1.00  0.00    -0.070 NA
ENDROOT
BRANCH   3   4
HETATM    4  C1  LIG X 999       2.016  -2.571  -0.348  1.00  0.00     0.126 A 
HETATM    5  C2  LIG X 999       0.626  -2.321  -0.271  1.00  0.00     0.053 A 
HETATM    6  C3  LIG X 999       0.207  -1.006  -0.125  1.00  0.00     0.026 A 
HETATM    7  C4  LIG X 999       1.097   0.013  -0.059  1.00  0.00     0.023 A 
HETATM    8  C17 LIG X 999      -1.029  -0.408   0.007  1.00  0.00     0.149 A 
HETATM    9  C5  LIG X 999       2.469  -0.143  -0.159  1.00  0.00     0.043 A 
HETATM   10  C9  LIG X 999       0.431   1.200   0.100  1.00  0.00     0.088 A 
HETATM   11  C6  LIG X 999       3.247   1.042  -0.089  1.00  0.00     0.109 A 
HETATM   12  C18 LIG X 999       2.953  -1.472  -0.350  1.00  0.00     0.138 A 
HETATM   13  C7  LIG X 999       2.588   2.297   0.080  1.00  0.00     0.072 A 
HETATM   14  C8  LIG X 999       1.172   2.397   0.176  1.00  0.00     0.123 A 
HETATM   15  N10 LIG X 999      -0.913   0.939   0.144  1.00  0.00    -0.258 N 
HETATM   16  C10 LIG X 999      -2.021   1.725   0.289  1.00  0.00     0.266 A 
HETATM   17  O1  LIG X 999      -1.926   2.973   0.418  1.00  0.00    -0.267 OA
HETATM   18  C11 LIG X 999      -3.293   1.108   0.293  1.00  0.00     0.064 A 
HETATM   19  C12 LIG X 999      -4.473   1.857   0.437  1.00  0.00     0.020 A 
HETATM   20  C16 LIG X 999      -3.373  -0.307   0.147  1.00  0.00     0.106 A 
HETATM   21  C13 LIG X 999      -5.713   1.221   0.438  1.00  0.00     0.004 A 
HETATM   22  C14 LIG X 999      -5.795  -0.165   0.296  1.00  0.00     0.037 A 
HETATM   23  C15 LIG X 999      -4.641  -0.944   0.150  1.00  0.00     0.122 A 
HETATM   24  N14 LIG X 999      -2.229  -1.032   0.007  1.00  0.00    -0.226 NA
BRANCH  11  25
HETATM   25  N4  LIG X 999       4.679   0.974  -0.175  1.00  0.00    -0.072 NA
HETATM   26  N5  LIG X 999       5.395   1.974  -0.118  1.00  0.00    -0.162 NA
HETATM   27  N6  LIG X 999       6.113   2.972  -0.062  1.00  0.00     0.068 N 
ENDBRANCH  11  25
BRANCH  14  28
HETATM   28  N7  LIG X 999       0.534   3.669   0.341  1.00  0.00    -0.070 NA
HETATM   29  N8  LIG X 999       1.166   4.724   0.408  1.00  0.00    -0.162 NA
HETATM   30  N9  LIG X 999       1.795   5.779   0.476  1.00  0.00     0.068 N 
ENDBRANCH  14  28
BRANCH  12  31
HETATM   31  N15 LIG X 999       4.349  -1.679  -0.610  1.00  0.00    -0.069 NA
HETATM   32  N16 LIG X 999       4.744  -2.482  -1.456  1.00  0.00    -0.162 NA
HETATM   33  N17 LIG X 999       5.141  -3.281  -2.303  1.00  0.00     0.068 N 
ENDBRANCH  12  31
BRANCH  23  34
HETATM   34  N11 LIG X 999      -4.817  -2.365   0.009  1.00  0.00    -0.070 NA
HETATM   35  N12 LIG X 999      -3.886  -3.160  -0.128  1.00  0.00    -0.162 NA
HETATM   36  N13 LIG X 999      -2.962  -3.961  -0.265  1.00  0.00     0.068 N 
ENDBRANCH  23  34
ENDBRANCH   3   4
TORSDOF 5
