REMARK  5 active torsions:
REMARK  status: ('A' for Active; 'I' for Inactive)
REMARK    1  A    between atoms: N3_3  and  C1_4 
REMARK    2  A    between atoms: C6_9  and  N4_10 
REMARK    3  A    between atoms: C8_14  and  N7_15 
REMARK    4  A    between atoms: C15_26  and  N11_27 
REMARK    5  A    between atoms: C18_33  and  N15_34 
ROOT
HETATM    1  N1  LIG X 999      -5.406   3.655  -1.419  1.00  0.00     0.068 N 
HETATM    2  N2  LIG X 999      -4.344   3.508  -0.814  1.00  0.00    -0.162 NA
HETATM    3  N3  LIG X 999      -3.279   3.368  -0.212  1.00  0.00    -0.070 NA
ENDROOT
BRANCH   3   4
HETATM    4  C1  LIG X 999      -2.650   2.091  -0.015  1.00  0.00     0.121 A 
HETATM    5  C2  LIG X 999      -1.239   2.081   0.049  1.00  0.00     0.053 A 
HETATM    6  C3  LIG X 999      -0.594   0.854   0.126  1.00  0.00     0.025 A 
HETATM    7  C4  LIG X 999      -1.296  -0.303   0.191  1.00  0.00     0.023 A 
HETATM    8  C17 LIG X 999       0.734   0.473   0.137  1.00  0.00     0.127 A 
HETATM    9  C5  LIG X 999      -2.681  -0.379   0.210  1.00  0.00     0.038 A 
HETATM   10  C9  LIG X 999      -0.428  -1.364   0.239  1.00  0.00     0.088 A 
HETATM   11  C6  LIG X 999      -3.226  -1.687   0.370  1.00  0.00     0.109 A 
HETATM   12  C18 LIG X 999      -3.390   0.856   0.068  1.00  0.00     0.071 A 
HETATM   13  C7  LIG X 999      -2.362  -2.811   0.370  1.00  0.00     0.072 A 
HETATM   14  C8  LIG X 999      -0.949  -2.674   0.303  1.00  0.00     0.123 A 
HETATM   15  N10 LIG X 999       0.853  -0.880   0.205  1.00  0.00    -0.259 N 
HETATM   16  C10 LIG X 999       2.083  -1.476   0.235  1.00  0.00     0.266 A 
HETATM   17  O1  LIG X 999       2.202  -2.726   0.311  1.00  0.00    -0.267 OA
HETATM   18  C11 LIG X 999       3.233  -0.659   0.182  1.00  0.00     0.062 A 
HETATM   19  C12 LIG X 999       4.526  -1.210   0.205  1.00  0.00     0.019 A 
HETATM   20  C16 LIG X 999       3.073   0.754   0.104  1.00  0.00     0.081 A 
HETATM   21  C13 LIG X 999       5.646  -0.382   0.151  1.00  0.00     0.004 A 
HETATM   22  C14 LIG X 999       5.496   1.002   0.075  1.00  0.00     0.037 A 
HETATM   23  C15 LIG X 999       4.215   1.585   0.051  1.00  0.00     0.120 A 
HETATM   24  N14 LIG X 999       1.815   1.292   0.084  1.00  0.00    -0.338 N 
HETATM   25  H6  LIG X 999       1.668   2.324   0.030  1.00  0.00     0.167 HD
BRANCH  11  26
HETATM   26  N4  LIG X 999      -4.614  -1.924   0.625  1.00  0.00    -0.072 NA
HETATM   27  N5  LIG X 999      -5.181  -1.404   1.587  1.00  0.00    -0.162 NA
HETATM   28  N6  LIG X 999      -5.748  -0.886   2.548  1.00  0.00     0.068 N 
ENDBRANCH  11  26
BRANCH  14  29
HETATM   29  N7  LIG X 999      -0.098  -3.826   0.316  1.00  0.00    -0.070 NA
HETATM   30  N8  LIG X 999      -0.539  -4.975   0.370  1.00  0.00    -0.162 NA
HETATM   31  N9  LIG X 999      -0.978  -6.123   0.424  1.00  0.00     0.068 N 
ENDBRANCH  14  29
BRANCH  12  32
HETATM   32  N15 LIG X 999      -4.817   0.870  -0.036  1.00  0.00    -0.396 N 
HETATM   33  H7  LIG X 999      -5.316   0.166  -0.624  1.00  0.00     0.156 HD
HETATM   34  H8  LIG X 999      -5.383   1.591   0.461  1.00  0.00     0.156 HD
ENDBRANCH  12  32
BRANCH  23  35
HETATM   35  N11 LIG X 999       4.056   3.011  -0.028  1.00  0.00    -0.070 NA
HETATM   36  N12 LIG X 999       5.015   3.783  -0.077  1.00  0.00    -0.162 NA
HETATM   37  N13 LIG X 999       5.971   4.555  -0.126  1.00  0.00     0.068 N 
ENDBRANCH  23  35
ENDBRANCH   3   4
TORSDOF 5
