REMARK  5 active torsions:
REMARK  status: ('A' for Active; 'I' for Inactive)
REMARK    1  A    between atoms: N3_3  and  C1_4 
REMARK    2  A    between atoms: C6_9  and  N4_10 
REMARK    3  A    between atoms: C8_14  and  N7_15 
REMARK    4  A    between atoms: C15_26  and  N11_27 
REMARK    5  A    between atoms: C18_33  and  N15_34 
ROOT
HETATM    1  N1  LIG X 999       1.652  -4.097   4.018  1.00  0.00     0.068 N 
HETATM    2  N2  LIG X 999       2.307  -3.302   3.346  1.00  0.00    -0.162 NA
HETATM    3  N3  LIG X 999       2.963  -2.505   2.674  1.00  0.00    -0.070 NA
ENDROOT
BRANCH   3   4
HETATM    4  C1  LIG X 999       2.349  -1.559   1.787  1.00  0.00     0.126 A 
HETATM    5  C2  LIG X 999       0.938  -1.531   1.618  1.00  0.00     0.053 A 
HETATM    6  C3  LIG X 999       0.416  -0.636   0.694  1.00  0.00     0.026 A 
HETATM    7  C4  LIG X 999       1.215   0.224   0.017  1.00  0.00     0.023 A 
HETATM    8  C17 LIG X 999      -0.859  -0.370   0.244  1.00  0.00     0.149 A 
HETATM    9  C5  LIG X 999       2.591   0.300   0.171  1.00  0.00     0.043 A 
HETATM   10  C9  LIG X 999       0.454   0.993  -0.825  1.00  0.00     0.088 A 
HETATM   11  C6  LIG X 999       3.238   1.349  -0.545  1.00  0.00     0.109 C 
HETATM   12  C18 LIG X 999       3.185  -0.682   1.028  1.00  0.00     0.138 A 
HETATM   13  C7  LIG X 999       2.492   2.124  -1.470  1.00  0.00     0.072 C 
HETATM   14  C8  LIG X 999       1.089   1.960  -1.632  1.00  0.00     0.123 C 
HETATM   15  N10 LIG X 999      -0.857   0.620  -0.687  1.00  0.00    -0.258 N 
HETATM   16  C10 LIG X 999      -2.022   1.045  -1.260  1.00  0.00     0.266 A 
HETATM   17  O1  LIG X 999      -2.033   1.968  -2.114  1.00  0.00    -0.267 OA
HETATM   18  C11 LIG X 999      -3.232   0.425  -0.872  1.00  0.00     0.064 A 
HETATM   19  C12 LIG X 999      -4.466   0.810  -1.423  1.00  0.00     0.020 A 
HETATM   20  C16 LIG X 999      -3.193  -0.614   0.103  1.00  0.00     0.106 A 
HETATM   21  C13 LIG X 999      -5.643   0.181  -1.020  1.00  0.00     0.004 A 
HETATM   22  C14 LIG X 999      -5.608  -0.836  -0.066  1.00  0.00     0.037 A 
HETATM   23  C15 LIG X 999      -4.397  -1.247   0.506  1.00  0.00     0.122 A 
HETATM   24  N14 LIG X 999      -1.998  -0.984   0.639  1.00  0.00    -0.226 NA
BRANCH  11  25
HETATM   25  N4  LIG X 999       4.584   1.759  -0.280  1.00  0.00    -0.072 NA
HETATM   26  N5  LIG X 999       5.006   1.884   0.871  1.00  0.00    -0.162 NA
HETATM   27  N6  LIG X 999       5.427   2.012   2.019  1.00  0.00     0.068 N 
ENDBRANCH  11  25
BRANCH  14  28
HETATM   28  N7  LIG X 999       0.356   2.765  -2.562  1.00  0.00    -0.070 NA
HETATM   29  N8  LIG X 999       0.897   3.612  -3.275  1.00  0.00    -0.162 NA
HETATM   30  N9  LIG X 999       1.436   4.458  -3.987  1.00  0.00     0.068 N 
ENDBRANCH  14  28
BRANCH  12  31
HETATM   31  N15 LIG X 999       4.598  -0.922   1.058  1.00  0.00    -0.069 NA
HETATM   32  N16 LIG X 999       5.262  -0.989   0.023  1.00  0.00    -0.162 NA
HETATM   33  N17 LIG X 999       5.927  -1.059  -1.010  1.00  0.00     0.068 N 
ENDBRANCH  12  31
BRANCH  23  34
HETATM   34  N11 LIG X 999      -4.452  -2.303   1.482  1.00  0.00    -0.070 NA
HETATM   35  N12 LIG X 999      -3.461  -2.757   2.056  1.00  0.00    -0.162 NA
HETATM   36  N13 LIG X 999      -2.477  -3.216   2.634  1.00  0.00     0.068 N 
ENDBRANCH  23  34
ENDBRANCH   3   4
TORSDOF 5
