REMARK  5 active torsions:
REMARK  status: ('A' for Active; 'I' for Inactive)
REMARK       I    between atoms: C2_2  and  N1_4 
REMARK    1  A    between atoms: N1_4  and  C3_5 
REMARK    2  A    between atoms: C4_6  and  N2_7 
REMARK    3  A    between atoms: C9_14  and  N5_15 
REMARK    4  A    between atoms: C11_19  and  N8_20 
REMARK    5  A    between atoms: C18_31  and  N12_32 
ROOT
HETATM    1  N2  LIG X 999       2.483  -0.543  -3.864  1.00  0.00    -0.070 NA
HETATM    2  N3  LIG X 999       3.308  -1.346  -4.302  1.00  0.00    -0.162 NA
HETATM    3  N4  LIG X 999       4.132  -2.142  -4.749  1.00  0.00     0.068 N 
ENDROOT
BRANCH   1   4
HETATM    4  C4  LIG X 999       1.864  -0.657  -2.571  1.00  0.00     0.123 A 
HETATM    5  C3  LIG X 999       2.263  -1.632  -1.587  1.00  0.00     0.105 A 
HETATM    6  C8  LIG X 999       1.574  -1.699  -0.338  1.00  0.00     0.040 A 
HETATM    7  C7  LIG X 999       0.575  -0.763  -0.131  1.00  0.00     0.023 A 
HETATM    8  C9  LIG X 999       1.795  -2.628   0.713  1.00  0.00     0.109 A 
HETATM    9  C6  LIG X 999       0.209   0.175  -1.036  1.00  0.00     0.026 A 
HETATM   10  C12 LIG X 999      -0.195  -0.642   0.996  1.00  0.00     0.088 A 
HETATM   11  C5  LIG X 999       0.827   0.260  -2.276  1.00  0.00     0.053 A 
HETATM   12  C20 LIG X 999      -0.808   0.880  -0.430  1.00  0.00     0.149 A 
HETATM   13  N11 LIG X 999      -1.068   0.397   0.814  1.00  0.00    -0.258 N 
HETATM   14  N15 LIG X 999      -1.491   1.922  -0.956  1.00  0.00    -0.226 NA
HETATM   15  C13 LIG X 999      -2.044   0.957   1.591  1.00  0.00     0.266 A 
HETATM   16  O2  LIG X 999      -2.295   0.517   2.743  1.00  0.00    -0.267 OA
HETATM   17  C14 LIG X 999      -2.776   2.051   1.075  1.00  0.00     0.064 A 
HETATM   18  C15 LIG X 999      -3.788   2.677   1.824  1.00  0.00     0.020 A 
HETATM   19  C19 LIG X 999      -2.476   2.526  -0.234  1.00  0.00     0.106 A 
HETATM   20  C16 LIG X 999      -4.491   3.755   1.289  1.00  0.00     0.004 A 
HETATM   21  C17 LIG X 999      -4.201   4.221   0.007  1.00  0.00     0.037 A 
HETATM   22  C18 LIG X 999      -3.202   3.620  -0.769  1.00  0.00     0.122 A 
HETATM   23  C11 LIG X 999       0.012  -1.535   2.068  1.00  0.00     0.123 A 
HETATM   24  C10 LIG X 999       1.016  -2.530   1.904  1.00  0.00     0.072 A 
BRANCH   5  25
HETATM   25  N1  LIG X 999       3.373  -2.497  -1.847  1.00  0.00    -0.211 NA
HETATM   26  C2  LIG X 999       4.675  -2.258  -1.304  1.00  0.00     0.239 C 
HETATM   27  C1  LIG X 999       5.776  -3.230  -1.565  1.00  0.00     0.119 C 
HETATM   28  O1  LIG X 999       4.888  -1.254  -0.572  1.00  0.00    -0.272 OA
ENDBRANCH   5  25
BRANCH  22  29
HETATM   29  N12 LIG X 999      -2.969   4.163  -2.082  1.00  0.00    -0.070 NA
HETATM   30  N13 LIG X 999      -2.141   3.709  -2.873  1.00  0.00    -0.162 NA
HETATM   31  N14 LIG X 999      -1.316   3.261  -3.669  1.00  0.00     0.068 N 
ENDBRANCH  22  29
BRANCH  23  32
HETATM   32  N8  LIG X 999      -0.758  -1.459   3.273  1.00  0.00    -0.070 NA
HETATM   33  N9  LIG X 999      -0.589  -2.231   4.218  1.00  0.00    -0.162 NA
HETATM   34  N10 LIG X 999      -0.420  -3.001   5.162  1.00  0.00     0.068 N 
ENDBRANCH  23  32
BRANCH   8  35
HETATM   35  N5  LIG X 999       2.764  -3.676   0.560  1.00  0.00    -0.072 NA
HETATM   36  N6  LIG X 999       2.999  -4.499   1.446  1.00  0.00    -0.162 NA
HETATM   37  N7  LIG X 999       3.236  -5.322   2.329  1.00  0.00     0.068 N 
ENDBRANCH   8  35
ENDBRANCH   1   4
TORSDOF 5
