REMARK  5 active torsions:
REMARK  status: ('A' for Active; 'I' for Inactive)
REMARK    1  A    between atoms: C2_3  and  C3_5 
REMARK    2  A    between atoms: C4_6  and  C5_7 
REMARK    3  A    between atoms: C11_13  and  S1_14 
REMARK    4  A    between atoms: S1_14  and  C12_17 
REMARK    5  A    between atoms: C12_17  and  C13_18 
ROOT
HETATM    1  N1  LIG X 999       8.224  -0.743  -3.667  1.00  0.00    -0.187 NA
HETATM    2  C1  LIG X 999       7.535  -0.128  -4.364  1.00  0.00     0.152 C 
HETATM    3  C2  LIG X 999       6.680   0.636  -5.228  1.00  0.00     0.305 C 
HETATM    4  O1  LIG X 999       7.054   0.915  -6.397  1.00  0.00    -0.266 OA
ENDROOT
BRANCH   3   5
HETATM    5  C3  LIG X 999       5.399   1.081  -4.760  1.00  0.00    -0.007 C 
HETATM    6  C4  LIG X 999       4.322   1.454  -4.366  1.00  0.00    -0.058 C 
BRANCH   6   7
HETATM    7  C5  LIG X 999       3.037   1.900  -3.895  1.00  0.00     0.019 A 
HETATM    8  C6  LIG X 999       2.397   2.977  -4.520  1.00  0.00     0.021 A 
HETATM    9  C7  LIG X 999       1.149   3.414  -4.068  1.00  0.00     0.014 A 
HETATM   10  C8  LIG X 999       0.529   2.776  -2.983  1.00  0.00    -0.026 A 
HETATM   11  C9  LIG X 999      -0.725   3.204  -2.523  1.00  0.00     0.014 A 
HETATM   12  C22 LIG X 999       1.174   1.687  -2.348  1.00  0.00    -0.023 A 
HETATM   13  C10 LIG X 999      -1.334   2.561  -1.442  1.00  0.00     0.024 A 
HETATM   14  C11 LIG X 999      -0.696   1.488  -0.805  1.00  0.00     0.060 A 
HETATM   15  C21 LIG X 999       0.553   1.048  -1.264  1.00  0.00     0.035 A 
HETATM   16  C23 LIG X 999       2.427   1.255  -2.811  1.00  0.00     0.032 A 
BRANCH  14  17
HETATM   17  S1  LIG X 999      -1.478   0.669   0.542  1.00  0.00     0.180 S 
HETATM   18  O2  LIG X 999      -0.434   0.171   1.504  1.00  0.00    -0.222 OA
HETATM   19  O3  LIG X 999      -2.381   1.629   1.265  1.00  0.00    -0.222 OA
BRANCH  17  20
HETATM   20  C12 LIG X 999      -2.429  -0.703  -0.084  1.00  0.00     0.192 C 
BRANCH  20  21
HETATM   21  C13 LIG X 999      -3.098  -1.426   1.039  1.00  0.00    -0.002 A 
HETATM   22  C14 LIG X 999      -4.329  -1.085   1.600  1.00  0.00     0.028 A 
HETATM   23  C15 LIG X 999      -4.664  -1.906   2.681  1.00  0.00    -0.016 A 
HETATM   24  C16 LIG X 999      -5.827  -1.822   3.450  1.00  0.00     0.036 A 
HETATM   25  C20 LIG X 999      -3.705  -2.868   2.966  1.00  0.00     0.015 A 
HETATM   26  C17 LIG X 999      -6.005  -2.728   4.511  1.00  0.00     0.035 A 
HETATM   27 CL1  LIG X 999      -7.455  -2.647   5.494  1.00  0.00    -0.084 Cl
HETATM   28  C18 LIG X 999      -5.022  -3.701   4.789  1.00  0.00     0.025 A 
HETATM   29  C19 LIG X 999      -3.857  -3.775   4.011  1.00  0.00     0.021 A 
HETATM   30  S2  LIG X 999      -2.422  -2.723   1.892  1.00  0.00    -0.093 SA
ENDBRANCH  20  21
ENDBRANCH  17  20
ENDBRANCH  14  17
ENDBRANCH   6   7
ENDBRANCH   3   5
TORSDOF 5
