REMARK  4 active torsions:
REMARK  status: ('A' for Active; 'I' for Inactive)
REMARK    1  A    between atoms: C3_3  and  S1_4 
REMARK    2  A    between atoms: S1_4  and  C4_7 
REMARK    3  A    between atoms: C8_11  and  N1_12 
REMARK    4  A    between atoms: C14_19  and  N2_20 
ROOT
HETATM    1  C1  LIG X 999      -2.414  -1.266  -2.448  1.00  0.00     0.013 C 
HETATM    2  C2  LIG X 999      -2.920  -0.682  -1.523  1.00  0.00    -0.102 C 
HETATM    3  C3  LIG X 999      -3.539   0.033  -0.405  1.00  0.00     0.238 C 
ENDROOT
BRANCH   3   4
HETATM    4  S1  LIG X 999      -2.397   0.199   0.956  1.00  0.00     0.188 S 
HETATM    5  O1  LIG X 999      -2.142  -1.142   1.585  1.00  0.00    -0.222 OA
HETATM    6  O2  LIG X 999      -3.028   1.080   1.998  1.00  0.00    -0.222 OA
BRANCH   4   7
HETATM    7  C4  LIG X 999      -0.886   0.954   0.408  1.00  0.00     0.087 A 
HETATM    8  C5  LIG X 999      -0.844   2.350   0.369  1.00  0.00     0.027 A 
HETATM    9  C6  LIG X 999       0.318   3.024   0.011  1.00  0.00     0.016 A 
HETATM   10  C7  LIG X 999       1.485   2.318  -0.327  1.00  0.00     0.005 A 
HETATM   11  C8  LIG X 999       2.684   2.994  -0.684  1.00  0.00     0.069 A 
HETATM   12  C13 LIG X 999       1.440   0.894  -0.365  1.00  0.00     0.004 A 
HETATM   13  C10 LIG X 999       3.770   2.261  -1.170  1.00  0.00     0.032 A 
HETATM   14  C11 LIG X 999       3.712   0.874  -1.250  1.00  0.00     0.003 A 
HETATM   15  C12 LIG X 999       2.567   0.193  -0.844  1.00  0.00     0.015 A 
HETATM   16  C14 LIG X 999       0.257   0.210   0.028  1.00  0.00     0.058 A 
BRANCH  11  17
HETATM   17  N1  LIG X 999       2.841   4.417  -0.580  1.00  0.00    -0.233 NA
HETATM   18  C9  LIG X 999       2.602   5.056   0.495  1.00  0.00     0.163 C 
HETATM   19  S2  LIG X 999       2.299   5.863   1.856  1.00  0.00    -0.055 SA
ENDBRANCH  11  17
BRANCH  16  20
HETATM   20  N2  LIG X 999       0.222  -1.226   0.041  1.00  0.00    -0.397 N 
HETATM   21  H9  LIG X 999       1.046  -1.785   0.349  1.00  0.00     0.156 HD
HETATM   22  H10 LIG X 999      -0.632  -1.752  -0.239  1.00  0.00     0.156 HD
ENDBRANCH  16  20
ENDBRANCH   4   7
ENDBRANCH   3   4
TORSDOF 4
