REMARK  3 active torsions:
REMARK  status: ('A' for Active; 'I' for Inactive)
REMARK    1  A    between atoms: N3_3  and  C1_4 
REMARK    2  A    between atoms: C1_4  and  C2_5 
REMARK    3  A    between atoms: C2_5  and  C3_7 
ROOT
HETATM    1  N1  LIG X 999       0.009   5.855  -1.823  1.00  0.00     0.068 N 
HETATM    2  N2  LIG X 999      -0.394   4.694  -1.870  1.00  0.00    -0.167 NA
HETATM    3  N3  LIG X 999      -0.798   3.532  -1.917  1.00  0.00    -0.108 NA
ENDROOT
BRANCH   3   4
HETATM    4  C1  LIG X 999      -0.031   2.509  -2.611  1.00  0.00     0.272 C 
BRANCH   4   5
HETATM    5  C2  LIG X 999      -0.740   1.190  -2.508  1.00  0.00     0.181 C 
HETATM    6  O1  LIG X 999      -1.373   0.775  -3.517  1.00  0.00    -0.290 OA
BRANCH   5   7
HETATM    7  C3  LIG X 999      -0.738   0.379  -1.258  1.00  0.00     0.012 A 
HETATM    8  C4  LIG X 999      -0.171   0.869  -0.065  1.00  0.00     0.016 A 
HETATM    9  C5  LIG X 999      -0.178   0.098   1.100  1.00  0.00     0.013 A 
HETATM   10  C6  LIG X 999      -0.753  -1.179   1.100  1.00  0.00    -0.026 A 
HETATM   11  C7  LIG X 999      -0.764  -1.960   2.266  1.00  0.00     0.012 A 
HETATM   12  C11 LIG X 999      -1.329  -1.685  -0.088  1.00  0.00    -0.025 A 
HETATM   13  C8  LIG X 999      -1.342  -3.233   2.253  1.00  0.00     0.001 A 
HETATM   14  C9  LIG X 999      -1.912  -3.733   1.079  1.00  0.00     0.001 A 
HETATM   15  C10 LIG X 999      -1.907  -2.965  -0.089  1.00  0.00     0.012 A 
HETATM   16  C12 LIG X 999      -1.319  -0.905  -1.255  1.00  0.00     0.027 A 
ENDBRANCH   5   7
ENDBRANCH   4   5
ENDBRANCH   3   4
TORSDOF 3
