REMARK  4 active torsions:
REMARK  status: ('A' for Active; 'I' for Inactive)
REMARK    1  A    between atoms: C3_3  and  C4_4 
REMARK    2  A    between atoms: C3_3  and  C6_6 
REMARK    3  A    between atoms: C3_3  and  O1_8 
REMARK    4  A    between atoms: O1_8  and  C8_9 
ROOT
HETATM    1  C1  LIG X 999      -2.513   2.092  -0.409  1.00  0.00     0.015 C 
HETATM    2  C2  LIG X 999      -2.407   0.912  -0.184  1.00  0.00    -0.078 C 
HETATM    3  C3  LIG X 999      -2.285  -0.540   0.075  1.00  0.00     0.129 C 
ENDROOT
BRANCH   3   4
HETATM    4  C4  LIG X 999      -2.067  -1.273  -1.281  1.00  0.00     0.048 C 
HETATM    5  C5  LIG X 999      -3.213  -1.119  -2.288  1.00  0.00     0.009 C 
ENDBRANCH   3   4
BRANCH   3   6
HETATM    6  C6  LIG X 999      -3.575  -1.000   0.800  1.00  0.00     0.048 C 
HETATM    7  C7  LIG X 999      -3.596  -2.495   1.131  1.00  0.00     0.009 C 
ENDBRANCH   3   6
BRANCH   3   8
HETATM    8  O1  LIG X 999      -1.176  -0.792   0.963  1.00  0.00    -0.325 OA
BRANCH   8   9
HETATM    9  C8  LIG X 999       0.131  -0.307   0.770  1.00  0.00     0.104 C 
HETATM   10  C9  LIG X 999       0.480   0.952   1.273  1.00  0.00     0.079 C 
HETATM   11 CL1  LIG X 999      -0.647   1.755   2.377  1.00  0.00    -0.080 Cl
HETATM   12  C10 LIG X 999       1.726   1.528   0.950  1.00  0.00    -0.001 A 
HETATM   13  C11 LIG X 999       2.048   2.830   1.388  1.00  0.00     0.014 A 
HETATM   14  C15 LIG X 999       2.667   0.799   0.163  1.00  0.00    -0.013 A 
HETATM   15  C12 LIG X 999       3.262   3.419   1.047  1.00  0.00     0.001 A 
HETATM   16  C13 LIG X 999       4.175   2.726   0.263  1.00  0.00     0.001 A 
HETATM   17  C14 LIG X 999       3.888   1.435  -0.177  1.00  0.00     0.013 A 
HETATM   18  C16 LIG X 999       2.362  -0.540  -0.227  1.00  0.00    -0.012 A 
HETATM   19  C17 LIG X 999       3.283  -1.365  -0.923  1.00  0.00     0.013 A 
HETATM   20  C21 LIG X 999       1.094  -1.093   0.112  1.00  0.00     0.010 A 
HETATM   21  C18 LIG X 999       2.968  -2.686  -1.242  1.00  0.00     0.001 A 
HETATM   22  C19 LIG X 999       1.746  -3.227  -0.863  1.00  0.00     0.001 A 
HETATM   23  C20 LIG X 999       0.819  -2.442  -0.183  1.00  0.00     0.015 A 
ENDBRANCH   8   9
ENDBRANCH   3   8
TORSDOF 4
