REMARK  5 active torsions:
REMARK  status: ('A' for Active; 'I' for Inactive)
REMARK    1  A    between atoms: C3_3  and  O1_4 
REMARK    2  A    between atoms: O1_4  and  C4_5 
REMARK    3  A    between atoms: C5_6  and  C6_7 
REMARK    4  A    between atoms: C6_7  and  N1_8 
REMARK    5  A    between atoms: N1_8  and  O2_9 
ROOT
HETATM    1  C1  LIG X 999       2.718   3.809  -1.755  1.00  0.00     0.014 C 
HETATM    2  C2  LIG X 999       2.167   2.738  -1.691  1.00  0.00    -0.091 C 
HETATM    3  C3  LIG X 999       1.499   1.440  -1.612  1.00  0.00     0.268 C 
ENDROOT
BRANCH   3   4
HETATM    4  O1  LIG X 999       0.722   1.383  -0.421  1.00  0.00    -0.338 OA
BRANCH   4   5
HETATM    5  C4  LIG X 999      -0.024   0.248  -0.088  1.00  0.00     0.088 A 
HETATM    6  C5  LIG X 999      -1.402   0.210  -0.387  1.00  0.00    -0.009 A 
HETATM    7  C7  LIG X 999      -2.150  -0.933  -0.064  1.00  0.00     0.012 A 
HETATM    8  C8  LIG X 999      -1.543  -2.033   0.542  1.00  0.00     0.013 A 
HETATM    9  C9  LIG X 999      -0.179  -2.002   0.859  1.00  0.00    -0.023 A 
HETATM   10  C10 LIG X 999       0.425  -3.101   1.488  1.00  0.00     0.012 A 
HETATM   11  C14 LIG X 999       0.590  -0.850   0.554  1.00  0.00     0.008 A 
HETATM   12  C11 LIG X 999       1.780  -3.060   1.825  1.00  0.00     0.001 A 
HETATM   13  C12 LIG X 999       2.538  -1.922   1.544  1.00  0.00     0.001 A 
HETATM   14  C13 LIG X 999       1.950  -0.821   0.916  1.00  0.00     0.015 A 
BRANCH   6  15
HETATM   15  C6  LIG X 999      -2.098   1.403  -1.004  1.00  0.00     0.158 C 
BRANCH  15  16
HETATM   16  N1  LIG X 999      -2.407   2.428  -0.002  1.00  0.00    -0.204 NA
HETATM   17  H6  LIG X 999      -1.547   2.674   0.547  1.00  0.00     0.153 HD
BRANCH  16  18
HETATM   18  O2  LIG X 999      -3.384   1.962   0.827  1.00  0.00    -0.315 OA
HETATM   19  H7  LIG X 999      -2.934   1.482   1.573  1.00  0.00     0.236 HD
ENDBRANCH  16  18
ENDBRANCH  15  16
ENDBRANCH   6  15
ENDBRANCH   4   5
ENDBRANCH   3   4
TORSDOF 5
