REMARK  3 active torsions:
REMARK  status: ('A' for Active; 'I' for Inactive)
REMARK    1  A    between atoms: N3_3  and  C1_4 
REMARK    2  A    between atoms: C2_5  and  N4_6 
REMARK    3  A    between atoms: C10_16  and  N7_17 
ROOT
HETATM    1  N1  LIG X 999      -5.100  -1.668  -0.103  1.00  0.00     0.068 N 
HETATM    2  N2  LIG X 999      -4.322  -0.719  -0.199  1.00  0.00    -0.162 NA
HETATM    3  N3  LIG X 999      -3.551   0.236  -0.294  1.00  0.00    -0.068 NA
ENDROOT
BRANCH   3   4
HETATM    4  C1  LIG X 999      -2.117   0.129  -0.188  1.00  0.00     0.158 C 
HETATM    5  C2  LIG X 999      -1.390   1.323  -0.058  1.00  0.00     0.143 C 
HETATM    6  C3  LIG X 999       0.027   1.301  -0.016  1.00  0.00     0.081 C 
HETATM    7  C4  LIG X 999       0.697   0.058   0.097  1.00  0.00     0.011 A 
HETATM    8  C12 LIG X 999       0.840   2.545  -0.133  1.00  0.00     0.290 C 
HETATM    9  C5  LIG X 999       2.101   0.007   0.301  1.00  0.00     0.047 A 
HETATM   10  C9  LIG X 999      -0.042  -1.153   0.015  1.00  0.00     0.010 A 
HETATM   11  C6  LIG X 999       2.742  -1.232   0.449  1.00  0.00     0.018 A 
HETATM   12  C11 LIG X 999       2.886   1.258   0.381  1.00  0.00     0.288 C 
HETATM   13  C7  LIG X 999       2.009  -2.412   0.409  1.00  0.00     0.002 A 
HETATM   14  C8  LIG X 999       0.633  -2.378   0.202  1.00  0.00     0.015 A 
HETATM   15  O1  LIG X 999       4.122   1.229   0.630  1.00  0.00    -0.265 OA
HETATM   16  N10 LIG X 999       2.238   2.510   0.160  1.00  0.00    -0.111 N 
HETATM   17  O2  LIG X 999       2.960   3.656   0.162  1.00  0.00    -0.074 OA
HETATM   18  C10 LIG X 999      -1.440  -1.112  -0.222  1.00  0.00     0.138 C 
HETATM   19  O3  LIG X 999       0.331   3.617  -0.560  1.00  0.00    -0.265 OA
BRANCH   5  20
HETATM   20  N4  LIG X 999      -2.134   2.545   0.067  1.00  0.00    -0.069 NA
HETATM   21  N5  LIG X 999      -1.903   3.351   0.970  1.00  0.00    -0.162 NA
HETATM   22  N6  LIG X 999      -1.675   4.155   1.872  1.00  0.00     0.068 N 
ENDBRANCH   5  20
BRANCH  18  23
HETATM   23  N7  LIG X 999      -2.184  -2.307  -0.508  1.00  0.00    -0.069 NA
HETATM   24  N8  LIG X 999      -1.803  -3.127  -1.345  1.00  0.00    -0.162 NA
HETATM   25  N9  LIG X 999      -1.425  -3.945  -2.182  1.00  0.00     0.068 N 
ENDBRANCH  18  23
ENDBRANCH   3   4
TORSDOF 3
