REMARK  4 active torsions:
REMARK  status: ('A' for Active; 'I' for Inactive)
REMARK    1  A    between atoms: N3_3  and  C1_4 
REMARK    2  A    between atoms: C2_5  and  N4_6 
REMARK    3  A    between atoms: C10_16  and  N7_17 
REMARK    4  A    between atoms: N10_22  and  O2_23 
ROOT
HETATM    1  N1  LIG X 999      -3.633  -3.708   0.590  1.00  0.00     0.068 N 
HETATM    2  N2  LIG X 999      -2.476  -3.291   0.560  1.00  0.00    -0.162 NA
HETATM    3  N3  LIG X 999      -1.317  -2.875   0.533  1.00  0.00    -0.068 NA
ENDROOT
BRANCH   3   4
HETATM    4  C1  LIG X 999      -0.982  -1.577   0.015  1.00  0.00     0.158 A 
HETATM    5  C2  LIG X 999      -0.038  -0.785   0.712  1.00  0.00     0.143 A 
HETATM    6  C3  LIG X 999       0.132   0.581   0.366  1.00  0.00     0.081 A 
HETATM    7  C4  LIG X 999      -0.619   1.134  -0.704  1.00  0.00     0.011 A 
HETATM    8  C12 LIG X 999       1.086   1.463   1.110  1.00  0.00     0.288 A 
HETATM    9  C5  LIG X 999      -0.488   2.503  -1.060  1.00  0.00     0.046 A 
HETATM   10  C9  LIG X 999      -1.503   0.309  -1.447  1.00  0.00     0.010 A 
HETATM   11  C6  LIG X 999      -1.229   3.022  -2.133  1.00  0.00     0.018 A 
HETATM   12  C11 LIG X 999       0.430   3.383  -0.309  1.00  0.00     0.285 A 
HETATM   13  C7  LIG X 999      -2.087   2.205  -2.859  1.00  0.00     0.002 A 
HETATM   14  C8  LIG X 999      -2.224   0.862  -2.526  1.00  0.00     0.015 A 
HETATM   15  O1  LIG X 999       0.533   4.606  -0.602  1.00  0.00    -0.265 OA
HETATM   16  N10 LIG X 999       1.211   2.844   0.756  1.00  0.00    -0.148 N 
HETATM   17  C10 LIG X 999      -1.647  -1.054  -1.119  1.00  0.00     0.138 A 
HETATM   18  O3  LIG X 999       1.793   1.015   2.053  1.00  0.00    -0.265 OA
BRANCH   5  19
HETATM   19  N4  LIG X 999       0.722  -1.326   1.811  1.00  0.00    -0.069 NA
HETATM   20  N5  LIG X 999       0.918  -2.531   1.980  1.00  0.00    -0.162 NA
HETATM   21  N6  LIG X 999       1.120  -3.732   2.153  1.00  0.00     0.068 N 
ENDBRANCH   5  19
BRANCH  16  22
HETATM   22  O2  LIG X 999       2.054   3.648   1.450  1.00  0.00    -0.277 OA
HETATM   23  H4  LIG X 999       2.920   3.588   0.969  1.00  0.00     0.245 HD
ENDBRANCH  16  22
BRANCH  17  24
HETATM   24  N7  LIG X 999      -2.440  -1.894  -1.976  1.00  0.00    -0.069 NA
HETATM   25  N8  LIG X 999      -2.114  -3.052  -2.242  1.00  0.00    -0.162 NA
HETATM   26  N9  LIG X 999      -1.790  -4.208  -2.511  1.00  0.00     0.068 N 
ENDBRANCH  17  24
ENDBRANCH   3   4
TORSDOF 4
