REMARK  5 active torsions:
REMARK  status: ('A' for Active; 'I' for Inactive)
REMARK    1  A    between atoms: N3_3  and  C1_4 
REMARK    2  A    between atoms: C1_4  and  C2_5 
REMARK    3  A    between atoms: C2_5  and  C3_7 
REMARK    4  A    between atoms: C7_11  and  N4_12 
REMARK    5  A    between atoms: C13_19  and  N5_20 
ROOT
HETATM    1  N1  LIG X 999       0.960   4.636  -1.079  1.00  0.00     0.068 N 
HETATM    2  N2  LIG X 999       0.849   3.719  -1.891  1.00  0.00    -0.167 NA
HETATM    3  N3  LIG X 999       0.737   2.800  -2.704  1.00  0.00    -0.108 NA
ENDROOT
BRANCH   3   4
HETATM    4  C1  LIG X 999       1.709   1.715  -2.752  1.00  0.00     0.272 C 
BRANCH   4   5
HETATM    5  C2  LIG X 999       1.661   0.904  -1.485  1.00  0.00     0.184 C 
HETATM    6  O1  LIG X 999       2.387   1.265  -0.520  1.00  0.00    -0.290 OA
BRANCH   5   7
HETATM    7  C3  LIG X 999       0.753  -0.269  -1.338  1.00  0.00     0.044 A 
HETATM    8  C4  LIG X 999      -0.458  -0.296  -2.046  1.00  0.00     0.018 A 
HETATM    9  C5  LIG X 999      -1.352  -1.351  -1.903  1.00  0.00     0.016 A 
HETATM   10  C6  LIG X 999      -1.060  -2.436  -1.060  1.00  0.00     0.005 A 
HETATM   11  C7  LIG X 999      -1.961  -3.528  -0.917  1.00  0.00     0.069 A 
HETATM   12  C12 LIG X 999       0.195  -2.465  -0.388  1.00  0.00     0.009 A 
HETATM   13  C9  LIG X 999      -1.554  -4.669  -0.220  1.00  0.00     0.032 A 
HETATM   14  C10 LIG X 999      -0.302  -4.725   0.383  1.00  0.00     0.003 A 
HETATM   15  C11 LIG X 999       0.563  -3.636   0.309  1.00  0.00     0.015 A 
HETATM   16  C13 LIG X 999       1.074  -1.349  -0.480  1.00  0.00     0.118 A 
BRANCH  11  17
HETATM   17  N4  LIG X 999      -3.285  -3.529  -1.470  1.00  0.00    -0.233 NA
HETATM   18  C8  LIG X 999      -4.115  -2.586  -1.264  1.00  0.00     0.163 C 
HETATM   19  S1  LIG X 999      -5.165  -1.392  -1.001  1.00  0.00    -0.055 SA
ENDBRANCH  11  17
BRANCH  16  20
HETATM   20  N5  LIG X 999       2.310  -1.305   0.252  1.00  0.00    -0.071 NA
HETATM   21  N6  LIG X 999       2.354  -1.520   1.464  1.00  0.00    -0.162 NA
HETATM   22  N7  LIG X 999       2.400  -1.732   2.675  1.00  0.00     0.068 N 
ENDBRANCH  16  20
ENDBRANCH   5   7
ENDBRANCH   4   5
ENDBRANCH   3   4
TORSDOF 5
