REMARK  4 active torsions:
REMARK  status: ('A' for Active; 'I' for Inactive)
REMARK    1  A    between atoms: C2_3  and  C3_5 
REMARK    2  A    between atoms: C4_6  and  C5_7 
REMARK    3  A    between atoms: C7_9  and  N2_10 
REMARK    4  A    between atoms: C13_17  and  N3_18 
ROOT
HETATM    1  N1  LIG X 999       3.984   3.103   4.685  1.00  0.00    -0.187 NA
HETATM    2  C1  LIG X 999       3.500   3.161   3.635  1.00  0.00     0.152 C 
HETATM    3  C2  LIG X 999       2.901   3.233   2.332  1.00  0.00     0.305 C 
HETATM    4  O1  LIG X 999       2.969   4.299   1.666  1.00  0.00    -0.266 OA
ENDROOT
BRANCH   3   5
HETATM    5  C3  LIG X 999       2.225   2.089   1.789  1.00  0.00    -0.007 C 
HETATM    6  C4  LIG X 999       1.659   1.128   1.333  1.00  0.00    -0.058 C 
BRANCH   6   7
HETATM    7  C5  LIG X 999       0.982  -0.021   0.789  1.00  0.00     0.021 A 
HETATM    8  C6  LIG X 999       1.603  -1.272   0.817  1.00  0.00     0.053 A 
HETATM    9  C7  LIG X 999       0.958  -2.407   0.290  1.00  0.00     0.071 A 
HETATM   10  C9  LIG X 999      -0.334  -2.270  -0.272  1.00  0.00     0.005 A 
HETATM   11  C10 LIG X 999      -1.009  -3.383  -0.808  1.00  0.00     0.015 A 
HETATM   12  C14 LIG X 999      -0.966  -0.996  -0.300  1.00  0.00     0.009 A 
HETATM   13  C11 LIG X 999      -2.281  -3.241  -1.360  1.00  0.00     0.003 A 
HETATM   14  C12 LIG X 999      -2.902  -1.995  -1.389  1.00  0.00     0.035 A 
HETATM   15  C13 LIG X 999      -2.257  -0.861  -0.863  1.00  0.00     0.104 A 
HETATM   16  C15 LIG X 999      -0.292   0.118   0.235  1.00  0.00     0.035 A 
BRANCH   9  17
HETATM   17  N2  LIG X 999       1.591  -3.701   0.314  1.00  0.00    -0.233 NA
HETATM   18  C8  LIG X 999       2.748  -3.924   0.796  1.00  0.00     0.163 C 
HETATM   19  S1  LIG X 999       4.212  -4.207   1.407  1.00  0.00    -0.055 SA
ENDBRANCH   9  17
BRANCH  15  20
HETATM   20  N3  LIG X 999      -2.898   0.426  -0.891  1.00  0.00    -0.072 NA
HETATM   21  N4  LIG X 999      -4.021   0.598  -1.369  1.00  0.00    -0.162 NA
HETATM   22  N5  LIG X 999      -5.141   0.772  -1.845  1.00  0.00     0.068 N 
ENDBRANCH  15  20
ENDBRANCH   6   7
ENDBRANCH   3   5
TORSDOF 4
