REMARK  3 active torsions:
REMARK  status: ('A' for Active; 'I' for Inactive)
REMARK    1  A    between atoms: S1_2  and  C1_4 
REMARK    2  A    between atoms: S1_2  and  C10_15 
REMARK    3  A    between atoms: C1_4  and  C2_5 
ROOT
HETATM    1  O1  LIG X 999      -0.337  -2.733  -2.610  1.00  0.00    -0.222 OA
HETATM    2  S1  LIG X 999       0.393  -3.067  -1.339  1.00  0.00     0.180 S 
HETATM    3  O2  LIG X 999       1.288  -4.247  -1.598  1.00  0.00    -0.222 OA
ENDROOT
BRANCH   2   4
HETATM    4  C1  LIG X 999      -0.788  -3.484  -0.063  1.00  0.00     0.192 C 
BRANCH   4   5
HETATM    5  C2  LIG X 999      -1.387  -2.241   0.511  1.00  0.00    -0.002 A 
HETATM    6  C3  LIG X 999      -2.336  -1.438  -0.123  1.00  0.00     0.028 A 
HETATM    7  C4  LIG X 999      -2.559  -0.239   0.561  1.00  0.00    -0.016 A 
HETATM    8  C5  LIG X 999      -3.422   0.786   0.166  1.00  0.00     0.036 A 
HETATM    9  C9  LIG X 999      -1.796  -0.106   1.712  1.00  0.00     0.015 A 
HETATM   10  C6  LIG X 999      -3.502   1.947   0.957  1.00  0.00     0.035 A 
HETATM   11 CL1  LIG X 999      -4.574   3.252   0.484  1.00  0.00    -0.084 Cl
HETATM   12  C7  LIG X 999      -2.721   2.068   2.124  1.00  0.00     0.025 A 
HETATM   13  C8  LIG X 999      -1.855   1.034   2.509  1.00  0.00     0.021 A 
HETATM   14  S2  LIG X 999      -0.824  -1.460   1.905  1.00  0.00    -0.093 SA
ENDBRANCH   4   5
ENDBRANCH   2   4
BRANCH   2  15
HETATM   15  C10 LIG X 999       1.361  -1.684  -0.833  1.00  0.00     0.060 A 
HETATM   16  C11 LIG X 999       2.539  -1.878  -0.101  1.00  0.00     0.024 A 
HETATM   17  C12 LIG X 999       3.259  -0.782   0.384  1.00  0.00     0.014 A 
HETATM   18  C13 LIG X 999       2.796   0.522   0.155  1.00  0.00    -0.026 A 
HETATM   19  C14 LIG X 999       3.496   1.630   0.659  1.00  0.00     0.012 A 
HETATM   20  C18 LIG X 999       1.603   0.723  -0.581  1.00  0.00    -0.025 A 
HETATM   21  C15 LIG X 999       3.013   2.923   0.439  1.00  0.00     0.001 A 
HETATM   22  C16 LIG X 999       1.832   3.121  -0.282  1.00  0.00     0.001 A 
HETATM   23  C17 LIG X 999       1.128   2.027  -0.792  1.00  0.00     0.012 A 
HETATM   24  C19 LIG X 999       0.901  -0.383  -1.080  1.00  0.00     0.035 A 
ENDBRANCH   2  15
TORSDOF 3
