REMARK  2 active torsions:
REMARK  status: ('A' for Active; 'I' for Inactive)
REMARK    1  A    between atoms: N3_3  and  C1_4 
REMARK    2  A    between atoms: C3_6  and  N4_7 
ROOT
HETATM    1  N1  LIG X 999      -6.511   2.112  -0.425  1.00  0.00     0.068 N 
HETATM    2  N2  LIG X 999      -5.757   1.142  -0.480  1.00  0.00    -0.162 NA
HETATM    3  N3  LIG X 999      -5.004   0.168  -0.536  1.00  0.00    -0.072 NA
ENDROOT
BRANCH   3   4
HETATM    4  C1  LIG X 999      -3.581   0.280  -0.384  1.00  0.00     0.108 A 
HETATM    5  C2  LIG X 999      -2.979   1.554  -0.157  1.00  0.00     0.072 A 
HETATM    6  C3  LIG X 999      -1.574   1.707  -0.001  1.00  0.00     0.123 A 
HETATM    7  C4  LIG X 999      -0.782   0.543  -0.078  1.00  0.00     0.088 A 
HETATM    8  C5  LIG X 999      -1.392  -0.664  -0.297  1.00  0.00     0.022 A 
HETATM    9  N8  LIG X 999       0.568   0.336   0.025  1.00  0.00    -0.258 N 
HETATM   10  C6  LIG X 999      -2.754  -0.875  -0.457  1.00  0.00     0.033 A 
HETATM   11  C10 LIG X 999      -0.456  -1.646  -0.336  1.00  0.00     0.026 A 
HETATM   12  C7  LIG X 999      -3.165  -2.228  -0.675  1.00  0.00     0.069 A 
HETATM   13 CL1  LIG X 999      -4.859  -2.673  -0.898  1.00  0.00    -0.082 Cl
HETATM   14  C8  LIG X 999      -2.180  -3.265  -0.717  1.00  0.00     0.057 A 
HETATM   15 CL2  LIG X 999      -2.636  -4.943  -0.984  1.00  0.00    -0.082 Cl
HETATM   16  C9  LIG X 999      -0.810  -2.971  -0.546  1.00  0.00     0.042 A 
HETATM   17  C11 LIG X 999       0.746  -1.003  -0.135  1.00  0.00     0.149 A 
HETATM   18  N7  LIG X 999       1.970  -1.579  -0.093  1.00  0.00    -0.226 NA
HETATM   19  C12 LIG X 999       3.069  -0.804   0.116  1.00  0.00     0.111 A 
HETATM   20  C13 LIG X 999       4.341  -1.391   0.162  1.00  0.00     0.137 A 
HETATM   21  C17 LIG X 999       2.930   0.600   0.288  1.00  0.00     0.064 A 
HETATM   22  O1  LIG X 999       4.489  -2.763  -0.006  1.00  0.00    -0.190 OA
HETATM   23  C14 LIG X 999       5.471  -0.596   0.376  1.00  0.00     0.042 A 
HETATM   24  C15 LIG X 999       5.340   0.785   0.546  1.00  0.00     0.004 A 
HETATM   25  C16 LIG X 999       4.078   1.384   0.503  1.00  0.00     0.020 A 
HETATM   26  C18 LIG X 999       1.636   1.165   0.238  1.00  0.00     0.266 A 
HETATM   27  O2  LIG X 999       1.484   2.405   0.388  1.00  0.00    -0.267 OA
BRANCH   6  28
HETATM   28  N4  LIG X 999      -0.996   2.998   0.226  1.00  0.00    -0.070 NA
HETATM   29  N5  LIG X 999      -1.673   4.025   0.297  1.00  0.00    -0.162 NA
HETATM   30  N6  LIG X 999      -2.347   5.051   0.367  1.00  0.00     0.068 N 
ENDBRANCH   6  28
ENDBRANCH   3   4
TORSDOF 2
