REMARK  7 active torsions:
REMARK  status: ('A' for Active; 'I' for Inactive)
REMARK    1  A    between atoms: C3_3  and  O1_4 
REMARK    2  A    between atoms: O1_4  and  C4_5 
REMARK    3  A    between atoms: C6_7  and  N1_8 
REMARK    4  A    between atoms: C12_15  and  N2_16 
REMARK    5  A    between atoms: C14_20  and  C15_21 
REMARK    6  A    between atoms: C15_21  and  N5_22 
REMARK    7  A    between atoms: N5_22  and  O2_23 
ROOT
HETATM    1  C1  LIG X 999       2.880  -2.862  -2.523  1.00  0.00     0.014 C 
HETATM    2  C2  LIG X 999       3.107  -2.325  -1.468  1.00  0.00    -0.091 C 
HETATM    3  C3  LIG X 999       3.380  -1.672  -0.183  1.00  0.00     0.268 C 
ENDROOT
BRANCH   3   4
HETATM    4  O1  LIG X 999       2.476  -0.587   0.027  1.00  0.00    -0.339 OA
BRANCH   4   5
HETATM    5  C4  LIG X 999       1.095  -0.694   0.290  1.00  0.00     0.081 A 
HETATM    6  C5  LIG X 999       0.483  -1.943   0.438  1.00  0.00     0.070 A 
HETATM    7  C6  LIG X 999      -0.884  -2.056   0.711  1.00  0.00     0.072 A 
HETATM    8  C8  LIG X 999      -1.676  -0.890   0.782  1.00  0.00     0.006 A 
HETATM    9  C9  LIG X 999      -3.054  -1.008   1.049  1.00  0.00     0.015 A 
HETATM   10  C13 LIG X 999      -1.095   0.403   0.580  1.00  0.00     0.019 A 
HETATM   11  C10 LIG X 999      -3.870   0.110   1.089  1.00  0.00     0.003 A 
HETATM   12  C11 LIG X 999      -3.344   1.365   0.829  1.00  0.00     0.035 A 
HETATM   13  C12 LIG X 999      -1.976   1.536   0.549  1.00  0.00     0.105 A 
HETATM   14  C14 LIG X 999       0.331   0.488   0.414  1.00  0.00     0.021 A 
BRANCH   7  15
HETATM   15  N1  LIG X 999      -1.496  -3.349   0.896  1.00  0.00    -0.233 NA
HETATM   16  C7  LIG X 999      -0.872  -4.458   0.840  1.00  0.00     0.163 C 
HETATM   17  S1  LIG X 999      -0.081  -5.860   0.767  1.00  0.00    -0.055 SA
ENDBRANCH   7  15
BRANCH  13  18
HETATM   18  N2  LIG X 999      -1.509   2.838   0.159  1.00  0.00    -0.072 NA
HETATM   19  N3  LIG X 999      -2.242   3.827   0.101  1.00  0.00    -0.162 NA
HETATM   20  N4  LIG X 999      -2.971   4.816   0.042  1.00  0.00     0.068 N 
ENDBRANCH  13  18
BRANCH  14  21
HETATM   21  C15 LIG X 999       1.105   1.800   0.395  1.00  0.00     0.333 C 
BRANCH  21  22
HETATM   22  N5  LIG X 999       1.280   2.289  -0.979  1.00  0.00    -0.064 N 
HETATM   23  H10 LIG X 999       1.925   1.650  -1.496  1.00  0.00     0.342 HD
HETATM   24  H11 LIG X 999       0.370   2.336  -1.497  1.00  0.00     0.342 HD
BRANCH  22  25
HETATM   25  O2  LIG X 999       1.864   3.519  -0.942  1.00  0.00    -0.198 OA
HETATM   26  H12 LIG X 999       1.143   4.176  -0.750  1.00  0.00     0.257 HD
ENDBRANCH  22  25
ENDBRANCH  21  22
ENDBRANCH  14  21
ENDBRANCH   4   5
ENDBRANCH   3   4
TORSDOF 7
