REMARK  3 active torsions:
REMARK  status: ('A' for Active; 'I' for Inactive)
REMARK    1  A    between atoms: N3_3  and  C1_4 
REMARK    2  A    between atoms: C3_6  and  N4_7 
REMARK    3  A    between atoms: C13_20  and  N8_21 
ROOT
HETATM    1  N1  LIG X 999       2.072  -6.679   0.136  1.00  0.00     0.068 N 
HETATM    2  N2  LIG X 999       1.403  -5.995   0.909  1.00  0.00    -0.162 NA
HETATM    3  N3  LIG X 999       0.728  -5.318   1.685  1.00  0.00    -0.072 NA
ENDROOT
BRANCH   3   4
HETATM    4  C1  LIG X 999       0.241  -4.009   1.353  1.00  0.00     0.106 A 
HETATM    5  C2  LIG X 999      -1.029  -3.630   1.860  1.00  0.00     0.072 A 
HETATM    6  C3  LIG X 999      -1.625  -2.375   1.546  1.00  0.00     0.123 A 
HETATM    7  C4  LIG X 999      -0.897  -1.502   0.708  1.00  0.00     0.088 A 
HETATM    8  C5  LIG X 999       0.339  -1.886   0.264  1.00  0.00     0.020 A 
HETATM    9  N11 LIG X 999      -1.154  -0.242   0.235  1.00  0.00    -0.259 N 
HETATM   10  C6  LIG X 999       0.967  -3.087   0.551  1.00  0.00     0.009 A 
HETATM   11  C10 LIG X 999       0.894  -0.889  -0.474  1.00  0.00     0.022 A 
HETATM   12  C7  LIG X 999       2.285  -3.241   0.052  1.00  0.00     0.015 A 
HETATM   13  C8  LIG X 999       2.877  -2.212  -0.728  1.00  0.00     0.002 A 
HETATM   14  C9  LIG X 999       2.177  -1.017  -1.002  1.00  0.00     0.016 A 
HETATM   15  C11 LIG X 999      -0.053   0.118  -0.480  1.00  0.00     0.127 A 
HETATM   16  N7  LIG X 999       0.050   1.326  -1.088  1.00  0.00    -0.338 N 
HETATM   17  C12 LIG X 999      -0.981   2.221  -0.994  1.00  0.00     0.081 A 
HETATM   18  H5  LIG X 999       0.919   1.554  -1.621  1.00  0.00     0.167 HD
HETATM   19  C13 LIG X 999      -0.898   3.486  -1.619  1.00  0.00     0.120 A 
HETATM   20  C17 LIG X 999      -2.151   1.873  -0.260  1.00  0.00     0.062 A 
HETATM   21  C14 LIG X 999      -1.976   4.385  -1.506  1.00  0.00     0.037 A 
HETATM   22  C15 LIG X 999      -3.119   4.037  -0.787  1.00  0.00     0.004 A 
HETATM   23  C16 LIG X 999      -3.211   2.792  -0.167  1.00  0.00     0.019 A 
HETATM   24  C18 LIG X 999      -2.218   0.606   0.359  1.00  0.00     0.266 A 
HETATM   25  O1  LIG X 999      -3.248   0.274   1.003  1.00  0.00    -0.267 OA
BRANCH   6  26
HETATM   26  N4  LIG X 999      -2.907  -2.019   2.075  1.00  0.00    -0.070 NA
HETATM   27  N5  LIG X 999      -3.551  -2.768   2.812  1.00  0.00    -0.162 NA
HETATM   28  N6  LIG X 999      -4.196  -3.514   3.547  1.00  0.00     0.068 N 
ENDBRANCH   6  26
BRANCH  19  29
HETATM   29  N8  LIG X 999       0.281   3.840  -2.360  1.00  0.00    -0.070 NA
HETATM   30  N9  LIG X 999       0.407   4.928  -2.924  1.00  0.00    -0.162 NA
HETATM   31  N10 LIG X 999       0.535   6.013  -3.489  1.00  0.00     0.068 N 
ENDBRANCH  19  29
ENDBRANCH   3   4
TORSDOF 3
