REMARK  3 active torsions:
REMARK  status: ('A' for Active; 'I' for Inactive)
REMARK    1  A    between atoms: S1_2  and  C1_4 
REMARK    2  A    between atoms: S1_2  and  C10_15 
REMARK    3  A    between atoms: C1_4  and  C2_5 
ROOT
HETATM    1  O1  LIG X 999       0.473   3.703  -0.965  1.00  0.00    -0.222 OA
HETATM    2  S1  LIG X 999      -0.335   2.645  -1.663  1.00  0.00     0.180 S 
HETATM    3  O2  LIG X 999      -1.419   3.317  -2.458  1.00  0.00    -0.222 OA
ENDROOT
BRANCH   2   4
HETATM    4  C1  LIG X 999       0.722   1.717  -2.762  1.00  0.00     0.192 C 
BRANCH   4   5
HETATM    5  C2  LIG X 999       1.600   0.796  -1.977  1.00  0.00    -0.002 A 
HETATM    6  C3  LIG X 999       2.733   1.180  -1.260  1.00  0.00     0.028 A 
HETATM    7  C4  LIG X 999       3.274   0.124  -0.520  1.00  0.00    -0.016 A 
HETATM    8  C5  LIG X 999       4.399   0.188   0.306  1.00  0.00     0.036 A 
HETATM    9  C9  LIG X 999       2.570  -1.064  -0.651  1.00  0.00     0.015 A 
HETATM   10  C6  LIG X 999       4.801  -0.971   0.995  1.00  0.00     0.035 A 
HETATM   11 CL1  LIG X 999       6.209  -0.921   2.039  1.00  0.00    -0.084 Cl
HETATM   12  C7  LIG X 999       4.076  -2.172   0.852  1.00  0.00     0.025 A 
HETATM   13  C8  LIG X 999       2.945  -2.223   0.022  1.00  0.00     0.021 A 
HETATM   14  S2  LIG X 999       1.262  -0.836  -1.678  1.00  0.00    -0.093 SA
ENDBRANCH   4   5
ENDBRANCH   2   4
BRANCH   2  15
HETATM   15  C10 LIG X 999      -1.058   1.564  -0.474  1.00  0.00     0.060 A 
HETATM   16  C11 LIG X 999      -0.455   1.392   0.779  1.00  0.00     0.024 A 
HETATM   17  C12 LIG X 999      -0.989   0.490   1.702  1.00  0.00     0.014 A 
HETATM   18  C13 LIG X 999      -2.132  -0.255   1.380  1.00  0.00    -0.026 A 
HETATM   19  C14 LIG X 999      -2.675  -1.168   2.298  1.00  0.00     0.012 A 
HETATM   20  C18 LIG X 999      -2.742  -0.088   0.113  1.00  0.00    -0.025 A 
HETATM   21  C15 LIG X 999      -3.812  -1.908   1.962  1.00  0.00     0.001 A 
HETATM   22  C16 LIG X 999      -4.413  -1.745   0.711  1.00  0.00     0.001 A 
HETATM   23  C17 LIG X 999      -3.883  -0.839  -0.213  1.00  0.00     0.012 A 
HETATM   24  C19 LIG X 999      -2.197   0.820  -0.807  1.00  0.00     0.035 A 
ENDBRANCH   2  15
TORSDOF 3
