REMARK  6 active torsions:
REMARK  status: ('A' for Active; 'I' for Inactive)
REMARK    1  A    between atoms: N3_3  and  C1_4 
REMARK    2  A    between atoms: C6_9  and  N4_10 
REMARK    3  A    between atoms: N4_10  and  C7_11 
REMARK    4  A    between atoms: C7_11  and  N5_13 
REMARK    5  A    between atoms: N5_13  and  C8_14 
REMARK    6  A    between atoms: C12_18  and  N6_19 
ROOT
HETATM    1  N1  LIG X 999      -1.258   5.314  -1.912  1.00  0.00     0.068 N 
HETATM    2  N2  LIG X 999      -0.359   4.837  -2.603  1.00  0.00    -0.162 NA
HETATM    3  N3  LIG X 999       0.543   4.359  -3.293  1.00  0.00    -0.072 NA
ENDROOT
BRANCH   3   4
HETATM    4  C1  LIG X 999       0.974   2.999  -3.143  1.00  0.00     0.104 A 
HETATM    5  C2  LIG X 999       2.349   2.763  -3.094  1.00  0.00     0.035 A 
HETATM    6  C3  LIG X 999       2.842   1.482  -2.886  1.00  0.00     0.003 A 
HETATM    7  C4  LIG X 999       1.971   0.412  -2.700  1.00  0.00     0.014 A 
HETATM    8  C5  LIG X 999       0.570   0.599  -2.740  1.00  0.00     0.011 A 
HETATM    9  C6  LIG X 999      -0.352  -0.474  -2.526  1.00  0.00     0.151 C 
HETATM   10  C16 LIG X 999       0.070   1.906  -3.034  1.00  0.00     0.008 A 
HETATM   11  C13 LIG X 999      -1.717  -0.253  -2.802  1.00  0.00     0.038 C 
HETATM   12  C14 LIG X 999      -2.182   1.002  -3.172  1.00  0.00     0.003 C 
HETATM   13  C15 LIG X 999      -1.306   2.076  -3.272  1.00  0.00     0.015 C 
BRANCH   9  14
HETATM   14  N4  LIG X 999       0.068  -1.794  -2.084  1.00  0.00     0.011 N 
HETATM   15  H4  LIG X 999       0.027  -2.436  -2.909  1.00  0.00     0.293 HD
HETATM   16  H5  LIG X 999       1.040  -1.824  -1.719  1.00  0.00     0.293 HD
BRANCH  14  17
HETATM   17  C7  LIG X 999      -0.767  -2.293  -1.015  1.00  0.00     0.274 C 
HETATM   18  S1  LIG X 999      -1.705  -3.616  -1.272  1.00  0.00    -0.034 SA
BRANCH  17  19
HETATM   19  N5  LIG X 999      -0.768  -1.692   0.294  1.00  0.00    -0.354 N 
HETATM   20  H6  LIG X 999      -1.448  -2.066   0.995  1.00  0.00     0.162 HD
BRANCH  19  21
HETATM   21  C8  LIG X 999      -0.003  -0.496   0.667  1.00  0.00     0.116 C 
HETATM   22  C9  LIG X 999      -0.904   0.738   0.733  1.00  0.00     0.027 C 
HETATM   23  C10 LIG X 999      -0.449   1.550   1.946  1.00  0.00     0.004 C 
HETATM   24  C11 LIG X 999       0.720   0.795   2.568  1.00  0.00     0.037 C 
HETATM   25  C12 LIG X 999       0.595  -0.636   2.066  1.00  0.00     0.240 C 
BRANCH  25  26
HETATM   26  N6  LIG X 999       1.900  -1.297   2.022  1.00  0.00     0.085 N 
HETATM   27  H15 LIG X 999       1.757  -2.270   1.667  1.00  0.00     0.313 HD
HETATM   28  H16 LIG X 999       2.247  -1.392   3.004  1.00  0.00     0.313 HD
ENDBRANCH  25  26
ENDBRANCH  19  21
ENDBRANCH  17  19
ENDBRANCH  14  17
ENDBRANCH   9  14
ENDBRANCH   3   4
TORSDOF 6
