REMARK  6 active torsions:
REMARK  status: ('A' for Active; 'I' for Inactive)
REMARK    1  A    between atoms: N3_3  and  C1_4 
REMARK    2  A    between atoms: C1_4  and  C2_5 
REMARK    3  A    between atoms: C2_5  and  C3_7 
REMARK    4  A    between atoms: C5_9  and  N4_10 
REMARK    5  A    between atoms: C7_14  and  N7_15 
REMARK    6  A    between atoms: C18_29  and  N9_30 
ROOT
HETATM    1  N1  LIG X 999       0.348   4.345  -5.016  1.00  0.00     0.068 N 
HETATM    2  N2  LIG X 999      -0.214   3.789  -4.074  1.00  0.00    -0.167 NA
HETATM    3  N3  LIG X 999      -0.777   3.233  -3.130  1.00  0.00    -0.108 NA
ENDROOT
BRANCH   3   4
HETATM    4  C1  LIG X 999      -0.893   1.780  -3.069  1.00  0.00     0.272 C 
BRANCH   4   5
HETATM    5  C2  LIG X 999       0.435   1.131  -2.780  1.00  0.00     0.184 C 
HETATM    6  O1  LIG X 999       1.486   1.573  -3.317  1.00  0.00    -0.290 OA
BRANCH   5   7
HETATM    7  C3  LIG X 999       0.492  -0.132  -2.025  1.00  0.00     0.042 A 
HETATM    8  C4  LIG X 999       0.896  -1.302  -2.714  1.00  0.00     0.053 A 
HETATM    9  C5  LIG X 999       0.754  -2.603  -2.143  1.00  0.00     0.107 A 
HETATM   10  C6  LIG X 999       0.144  -2.737  -0.865  1.00  0.00     0.037 A 
HETATM   11  C7  LIG X 999      -0.138  -3.947  -0.155  1.00  0.00     0.061 A 
HETATM   12  C11 LIG X 999      -0.178  -1.553  -0.216  1.00  0.00     0.021 A 
HETATM   13  C8  LIG X 999      -0.669  -3.873   1.174  1.00  0.00     0.062 A 
HETATM   14 CL1  LIG X 999      -1.040  -5.326   2.094  1.00  0.00    -0.082 Cl
HETATM   15  C9  LIG X 999      -0.950  -2.627   1.776  1.00  0.00     0.042 A 
HETATM   16  C10 LIG X 999      -0.698  -1.479   1.035  1.00  0.00     0.024 A 
HETATM   17  C20 LIG X 999      -0.810  -0.126   1.301  1.00  0.00     0.127 A 
HETATM   18  N8  LIG X 999      -0.352   0.611   0.256  1.00  0.00    -0.261 N 
HETATM   19  N12 LIG X 999      -1.242   0.446   2.452  1.00  0.00    -0.338 N 
HETATM   20  C12 LIG X 999       0.009  -0.289  -0.709  1.00  0.00     0.070 A 
HETATM   21  C13 LIG X 999      -0.184   1.960   0.374  1.00  0.00     0.266 C 
HETATM   22  O2  LIG X 999       0.433   2.618  -0.504  1.00  0.00    -0.267 OA
HETATM   23  C14 LIG X 999      -0.653   2.600   1.541  1.00  0.00     0.062 A 
HETATM   24  C15 LIG X 999      -0.520   3.989   1.715  1.00  0.00     0.019 A 
HETATM   25  C19 LIG X 999      -1.234   1.810   2.577  1.00  0.00     0.081 A 
HETATM   26  C16 LIG X 999      -0.952   4.594   2.893  1.00  0.00     0.004 A 
HETATM   27  C17 LIG X 999      -1.546   3.833   3.899  1.00  0.00     0.037 A 
HETATM   28  C18 LIG X 999      -1.726   2.454   3.745  1.00  0.00     0.120 A 
HETATM   29  H10 LIG X 999      -1.534  -0.175   3.236  1.00  0.00     0.167 HD
BRANCH   9  30
HETATM   30  N4  LIG X 999       1.250  -3.755  -2.840  1.00  0.00    -0.072 NA
HETATM   31  N5  LIG X 999       1.800  -3.682  -3.940  1.00  0.00    -0.162 NA
HETATM   32  N6  LIG X 999       2.350  -3.610  -5.038  1.00  0.00     0.068 N 
ENDBRANCH   9  30
BRANCH  11  33
HETATM   33  N7  LIG X 999       0.048  -5.232  -0.764  1.00  0.00    -0.397 N 
HETATM   34  H4  LIG X 999       0.217  -6.084  -0.184  1.00  0.00     0.156 HD
HETATM   35  H5  LIG X 999      -0.173  -5.388  -1.770  1.00  0.00     0.156 HD
ENDBRANCH  11  33
BRANCH  28  36
HETATM   36  N9  LIG X 999      -2.425   1.758   4.787  1.00  0.00    -0.070 NA
HETATM   37  N10 LIG X 999      -3.274   0.898   4.547  1.00  0.00    -0.162 NA
HETATM   38  N11 LIG X 999      -4.123   0.041   4.309  1.00  0.00     0.068 N 
ENDBRANCH  28  36
ENDBRANCH   5   7
ENDBRANCH   4   5
ENDBRANCH   3   4
TORSDOF 6
