REMARK  5 active torsions:
REMARK  status: ('A' for Active; 'I' for Inactive)
REMARK    1  A    between atoms: C2_3  and  C3_5 
REMARK    2  A    between atoms: C4_6  and  C5_7 
REMARK    3  A    between atoms: C14_16  and  S1_17 
REMARK    4  A    between atoms: S1_17  and  C15_20 
REMARK    5  A    between atoms: C15_20  and  C16_21 
ROOT
HETATM    1  N1  LIG X 999      -1.996  -1.927   3.010  1.00  0.00    -0.187 NA
HETATM    2  C1  LIG X 999      -1.384  -2.439   2.172  1.00  0.00     0.152 C 
HETATM    3  C2  LIG X 999      -0.624  -3.072   1.131  1.00  0.00     0.305 C 
HETATM    4  O1  LIG X 999      -0.011  -4.146   1.363  1.00  0.00    -0.266 OA
ENDROOT
BRANCH   3   5
HETATM    5  C3  LIG X 999      -0.560  -2.476  -0.173  1.00  0.00    -0.007 C 
HETATM    6  C4  LIG X 999      -0.511  -1.966  -1.264  1.00  0.00    -0.056 C 
BRANCH   6   7
HETATM    7  C5  LIG X 999      -0.459  -1.342  -2.564  1.00  0.00     0.040 A 
HETATM    8  C6  LIG X 999      -0.321  -2.158  -3.695  1.00  0.00     0.034 A 
HETATM    9  C7  LIG X 999      -0.256  -1.592  -4.975  1.00  0.00    -0.025 A 
HETATM   10  C8  LIG X 999      -0.117  -2.406  -6.111  1.00  0.00     0.012 A 
HETATM   11  C12 LIG X 999      -0.329  -0.187  -5.125  1.00  0.00    -0.024 A 
HETATM   12  C9  LIG X 999      -0.051  -1.830  -7.383  1.00  0.00     0.001 A 
HETATM   13  C10 LIG X 999      -0.122  -0.442  -7.531  1.00  0.00     0.001 A 
HETATM   14  C11 LIG X 999      -0.260   0.379  -6.408  1.00  0.00     0.012 A 
HETATM   15  C13 LIG X 999      -0.467   0.627  -3.992  1.00  0.00     0.037 A 
HETATM   16  C14 LIG X 999      -0.539   0.061  -2.710  1.00  0.00     0.079 A 
BRANCH  16  17
HETATM   17  S1  LIG X 999      -0.699   1.124  -1.303  1.00  0.00     0.181 S 
HETATM   18  O2  LIG X 999      -1.776   0.597  -0.395  1.00  0.00    -0.222 OA
HETATM   19  O3  LIG X 999      -1.083   2.510  -1.740  1.00  0.00    -0.222 OA
BRANCH  17  20
HETATM   20  C15 LIG X 999       0.867   1.199  -0.446  1.00  0.00     0.192 C 
BRANCH  20  21
HETATM   21  C16 LIG X 999       0.661   1.558   0.989  1.00  0.00    -0.002 A 
HETATM   22  C17 LIG X 999       0.610   0.648   2.045  1.00  0.00     0.028 A 
HETATM   23  C18 LIG X 999       0.323   1.267   3.265  1.00  0.00    -0.016 A 
HETATM   24  C19 LIG X 999       0.200   0.631   4.503  1.00  0.00     0.036 A 
HETATM   25  C23 LIG X 999       0.145   2.639   3.162  1.00  0.00     0.015 A 
HETATM   26  C20 LIG X 999      -0.103   1.407   5.636  1.00  0.00     0.035 A 
HETATM   27 CL1  LIG X 999      -0.264   0.636   7.202  1.00  0.00    -0.084 Cl
HETATM   28  C21 LIG X 999      -0.280   2.801   5.518  1.00  0.00     0.025 A 
HETATM   29  C22 LIG X 999      -0.156   3.429   4.269  1.00  0.00     0.021 A 
HETATM   30  S2  LIG X 999       0.336   3.116   1.563  1.00  0.00    -0.093 SA
ENDBRANCH  20  21
ENDBRANCH  17  20
ENDBRANCH  16  17
ENDBRANCH   6   7
ENDBRANCH   3   5
TORSDOF 5
