REMARK  6 active torsions:
REMARK  status: ('A' for Active; 'I' for Inactive)
REMARK    1  A    between atoms: O1_2  and  C2_3 
REMARK    2  A    between atoms: C2_3  and  C3_4 
REMARK    3  A    between atoms: C3_4  and  C4_6 
REMARK    4  A    between atoms: C4_6  and  C5_7 
REMARK       I    between atoms: C5_7  and  N1_9 
REMARK    5  A    between atoms: N1_9  and  C6_10 
REMARK    6  A    between atoms: C11_15  and  N2_16 
ROOT
HETATM    1  N2  LIG X 999       5.049   0.079  -2.574  1.00  0.00    -0.233 NA
HETATM    2  C12 LIG X 999       5.800   0.280  -3.583  1.00  0.00     0.163 C 
HETATM    3  S1  LIG X 999       6.750   0.534  -4.859  1.00  0.00    -0.055 SA
ENDROOT
BRANCH   1   4
HETATM    4  C11 LIG X 999       3.668   0.483  -2.497  1.00  0.00     0.069 A 
HETATM    5  C10 LIG X 999       2.921   0.208  -1.327  1.00  0.00     0.005 A 
HETATM    6  C9  LIG X 999       3.508  -0.459  -0.235  1.00  0.00     0.015 A 
HETATM    7  C16 LIG X 999       1.557   0.604  -1.245  1.00  0.00     0.005 A 
HETATM    8  C8  LIG X 999       2.761  -0.739   0.908  1.00  0.00     0.003 A 
HETATM    9  C7  LIG X 999       1.425  -0.353   0.989  1.00  0.00     0.032 A 
HETATM   10  C6  LIG X 999       0.814   0.338  -0.071  1.00  0.00     0.071 A 
HETATM   11  C15 LIG X 999       0.968   1.268  -2.337  1.00  0.00     0.015 A 
HETATM   12  C14 LIG X 999       1.708   1.534  -3.487  1.00  0.00     0.003 A 
HETATM   13  C13 LIG X 999       3.044   1.148  -3.571  1.00  0.00     0.032 A 
BRANCH  10  14
HETATM   14  N1  LIG X 999      -0.572   0.717   0.000  1.00  0.00    -0.213 NA
HETATM   15  C5  LIG X 999      -1.318   1.005   1.189  1.00  0.00     0.250 C 
HETATM   16  O3  LIG X 999      -0.733   1.215   2.285  1.00  0.00    -0.271 OA
BRANCH  15  17
HETATM   17  C4  LIG X 999      -2.810   1.069   1.124  1.00  0.00     0.185 C 
BRANCH  17  18
HETATM   18  C3  LIG X 999      -3.399  -0.282   1.418  1.00  0.00     0.159 C 
HETATM   19  O2  LIG X 999      -3.225  -1.202   0.632  1.00  0.00    -0.295 OA
BRANCH  18  20
HETATM   20  C2  LIG X 999      -4.221  -0.508   2.657  1.00  0.00     0.245 C 
BRANCH  20  21
HETATM   21  O1  LIG X 999      -5.395   0.280   2.626  1.00  0.00    -0.389 OA
HETATM   22  C1  LIG X 999      -6.422  -0.402   1.938  1.00  0.00     0.202 C 
ENDBRANCH  20  21
ENDBRANCH  18  20
ENDBRANCH  17  18
ENDBRANCH  15  17
ENDBRANCH  10  14
ENDBRANCH   1   4
TORSDOF 6
