REMARK  4 active torsions:
REMARK  status: ('A' for Active; 'I' for Inactive)
REMARK    1  A    between atoms: N3_3  and  C1_4 
REMARK    2  A    between atoms: C12_19  and  N6_20 
REMARK    3  A    between atoms: C14_24  and  N9_25 
REMARK    4  A    between atoms: C16_29  and  N12_30 
ROOT
HETATM    1  N1  LIG X 999      -2.333   0.602  -5.098  1.00  0.00     0.068 N 
HETATM    2  N2  LIG X 999      -3.270   0.589  -4.301  1.00  0.00    -0.162 NA
HETATM    3  N3  LIG X 999      -4.210   0.577  -3.506  1.00  0.00    -0.070 NA
ENDROOT
BRANCH   3   4
HETATM    4  C1  LIG X 999      -4.089   1.097  -2.174  1.00  0.00     0.120 A 
HETATM    5  C2  LIG X 999      -5.126   1.910  -1.702  1.00  0.00     0.037 A 
HETATM    6  C3  LIG X 999      -5.042   2.523  -0.454  1.00  0.00     0.004 A 
HETATM    7  C4  LIG X 999      -3.924   2.326   0.352  1.00  0.00     0.019 A 
HETATM    8  C5  LIG X 999      -2.883   1.480  -0.070  1.00  0.00     0.062 A 
HETATM    9  C6  LIG X 999      -1.758   1.238   0.749  1.00  0.00     0.266 A 
HETATM   10  C8  LIG X 999      -2.970   0.833  -1.338  1.00  0.00     0.081 A 
HETATM   11  O1  LIG X 999      -1.656   1.812   1.864  1.00  0.00    -0.267 OA
HETATM   12  N4  LIG X 999      -0.799   0.372   0.306  1.00  0.00    -0.259 N 
HETATM   13  C7  LIG X 999      -0.929  -0.261  -0.890  1.00  0.00     0.127 A 
HETATM   14  C17 LIG X 999       0.375  -0.087   0.844  1.00  0.00     0.088 A 
HETATM   15  N5  LIG X 999      -1.996  -0.058  -1.703  1.00  0.00    -0.338 N 
HETATM   16  C9  LIG X 999       0.135  -1.114  -1.118  1.00  0.00     0.024 A 
HETATM   17  H4  LIG X 999      -2.066  -0.619  -2.578  1.00  0.00     0.167 HD
HETATM   18  C10 LIG X 999       0.454  -1.997  -2.139  1.00  0.00     0.042 A 
HETATM   19  C18 LIG X 999       0.933  -0.983  -0.031  1.00  0.00     0.023 A 
HETATM   20  C11 LIG X 999       1.630  -2.769  -2.006  1.00  0.00     0.067 A 
HETATM   21 CL1  LIG X 999       1.921  -3.969  -3.261  1.00  0.00    -0.082 Cl
HETATM   22  C12 LIG X 999       2.482  -2.620  -0.853  1.00  0.00     0.128 A 
HETATM   23  C13 LIG X 999       2.115  -1.681   0.160  1.00  0.00     0.042 A 
HETATM   24  C14 LIG X 999       2.819  -1.394   1.364  1.00  0.00     0.109 A 
HETATM   25  C15 LIG X 999       2.259  -0.495   2.306  1.00  0.00     0.072 A 
HETATM   26  C16 LIG X 999       1.030   0.178   2.066  1.00  0.00     0.123 A 
BRANCH  22  27
HETATM   27  N6  LIG X 999       3.640  -3.447  -0.653  1.00  0.00    -0.070 NA
HETATM   28  N7  LIG X 999       4.304  -3.923  -1.574  1.00  0.00    -0.162 NA
HETATM   29  N8  LIG X 999       4.979  -4.399  -2.486  1.00  0.00     0.068 N 
ENDBRANCH  22  27
BRANCH  24  30
HETATM   30  N9  LIG X 999       4.103  -1.952   1.656  1.00  0.00    -0.072 NA
HETATM   31  N10 LIG X 999       5.084  -1.673   0.966  1.00  0.00    -0.162 NA
HETATM   32  N11 LIG X 999       6.065  -1.392   0.278  1.00  0.00     0.068 N 
ENDBRANCH  24  30
BRANCH  26  33
HETATM   33  N12 LIG X 999       0.496   1.096   3.027  1.00  0.00    -0.070 NA
HETATM   34  N13 LIG X 999       1.058   1.337   4.096  1.00  0.00    -0.162 NA
HETATM   35  N14 LIG X 999       1.617   1.579   5.165  1.00  0.00     0.068 N 
ENDBRANCH  26  33
ENDBRANCH   3   4
TORSDOF 4
